/*---------------------------------------------------------------------------*\
| =========                 |                                                 |
| \\      /  F ield         | OpenFOAM: The Open Source CFD Toolbox           |
|  \\    /   O peration     | Version:  v1906                                 |
|   \\  /    A nd           | Web:      www.OpenFOAM.com                      |
|    \\/     M anipulation  |                                                 |
\*---------------------------------------------------------------------------*/
Build  : v1906 OPENFOAM=1906
Arch   : "LSB;label=32;scalar=64"
Exec   : icoFoam
Date   : Jun 15 2020
Time   : 11:20:02
Host   : LAPTOP-ODVE2UUP
PID    : 839
I/O    : uncollated
Case   : /home/allen/backup_tutorial/low_viscocity_flat
nProcs : 1
trapFpe: Floating point exception trapping enabled (FOAM_SIGFPE).
fileModificationChecking : Monitoring run-time modified files using timeStampMaster (fileModificationSkew 10)
allowSystemOperations : Allowing user-supplied system call operations

// * * * * * * * * * * * * * * * * * * * * * * * * * * * * * * * * * * * * * //
Create time

Create mesh for time = 0


PISO: Operating solver in PISO mode

Reading transportProperties

Reading field p

Reading field U

Reading/calculating face flux field phi


Starting time loop

Time = 0.00025

Courant Number mean: 0.0545455 max: 0.136823
smoothSolver:  Solving for Ux, Initial residual = 1, Final residual = 1.85451e-06, No Iterations 2
smoothSolver:  Solving for Uy, Initial residual = 0, Final residual = 0, No Iterations 0
DICPCG:  Solving for p, Initial residual = 1, Final residual = 0.0410429, No Iterations 120
time step continuity errors : sum local = 4.85429e-11, global = -6.41837e-20, cumulative = -6.41837e-20
DICPCG:  Solving for p, Initial residual = 0.0060582, Final residual = 7.69666e-07, No Iterations 136
time step continuity errors : sum local = 1.67183e-14, global = -1.05241e-19, cumulative = -1.69425e-19
ExecutionTime = 0.13 s  ClockTime = 1 s

Time = 0.0005

Courant Number mean: 0.0545455 max: 0.136827
smoothSolver:  Solving for Ux, Initial residual = 0.22276, Final residual = 4.05458e-07, No Iterations 2
smoothSolver:  Solving for Uy, Initial residual = 0.160371, Final residual = 1.60217e-06, No Iterations 2
DICPCG:  Solving for p, Initial residual = 0.0167961, Final residual = 0.000673034, No Iterations 120
time step continuity errors : sum local = 1.457e-11, global = 4.13697e-20, cumulative = -1.28055e-19
DICPCG:  Solving for p, Initial residual = 0.00111525, Final residual = 9.89482e-07, No Iterations 128
time step continuity errors : sum local = 2.51473e-14, global = 5.66481e-20, cumulative = -7.14071e-20
ExecutionTime = 0.16 s  ClockTime = 1 s

Time = 0.00075

Courant Number mean: 0.0545455 max: 0.136831
smoothSolver:  Solving for Ux, Initial residual = 0.13467, Final residual = 2.4535e-07, No Iterations 2
smoothSolver:  Solving for Uy, Initial residual = 0.0971608, Final residual = 9.44459e-07, No Iterations 2
DICPCG:  Solving for p, Initial residual = 0.00740112, Final residual = 0.000282739, No Iterations 119
time step continuity errors : sum local = 7.21745e-12, global = 9.62286e-21, cumulative = -6.17842e-20
DICPCG:  Solving for p, Initial residual = 0.000486755, Final residual = 9.68401e-07, No Iterations 126
time step continuity errors : sum local = 2.5867e-14, global = -4.00572e-21, cumulative = -6.579e-20
ExecutionTime = 0.19 s  ClockTime = 1 s

Time = 0.001

Courant Number mean: 0.0545455 max: 0.136835
smoothSolver:  Solving for Ux, Initial residual = 0.0958955, Final residual = 1.74733e-07, No Iterations 2
smoothSolver:  Solving for Uy, Initial residual = 0.068199, Final residual = 6.55605e-07, No Iterations 2
DICPCG:  Solving for p, Initial residual = 0.00538927, Final residual = 0.000269383, No Iterations 117
time step continuity errors : sum local = 7.2028e-12, global = 3.43905e-20, cumulative = -3.13995e-20
DICPCG:  Solving for p, Initial residual = 0.000492716, Final residual = 9.17382e-07, No Iterations 124
time step continuity errors : sum local = 2.41528e-14, global = -6.00388e-20, cumulative = -9.14382e-20
ExecutionTime = 0.22 s  ClockTime = 1 s

Time = 0.00125

Courant Number mean: 0.0545456 max: 0.136839
smoothSolver:  Solving for Ux, Initial residual = 0.0728371, Final residual = 1.32464e-07, No Iterations 2
smoothSolver:  Solving for Uy, Initial residual = 0.0495577, Final residual = 4.7811e-07, No Iterations 2
DICPCG:  Solving for p, Initial residual = 0.00513627, Final residual = 0.000217456, No Iterations 116
time step continuity errors : sum local = 5.71933e-12, global = -2.80284e-20, cumulative = -1.19467e-19
DICPCG:  Solving for p, Initial residual = 0.000386637, Final residual = 9.5602e-07, No Iterations 119
time step continuity errors : sum local = 2.41159e-14, global = 1.81564e-20, cumulative = -1.0131e-19
ExecutionTime = 0.24 s  ClockTime = 1 s

Time = 0.0015

Courant Number mean: 0.0545456 max: 0.136843
smoothSolver:  Solving for Ux, Initial residual = 0.0577588, Final residual = 1.04794e-07, No Iterations 2
smoothSolver:  Solving for Uy, Initial residual = 0.037846, Final residual = 3.72322e-07, No Iterations 2
DICPCG:  Solving for p, Initial residual = 0.00429753, Final residual = 0.000184067, No Iterations 115
time step continuity errors : sum local = 4.67185e-12, global = -3.65969e-20, cumulative = -1.37907e-19
DICPCG:  Solving for p, Initial residual = 0.000338329, Final residual = 8.56412e-07, No Iterations 123
time step continuity errors : sum local = 2.19563e-14, global = 3.02213e-20, cumulative = -1.07686e-19
ExecutionTime = 0.27 s  ClockTime = 1 s

Time = 0.00175

Courant Number mean: 0.0545456 max: 0.136846
smoothSolver:  Solving for Ux, Initial residual = 0.0489653, Final residual = 8.8719e-08, No Iterations 2
smoothSolver:  Solving for Uy, Initial residual = 0.0320903, Final residual = 3.16028e-07, No Iterations 2
DICPCG:  Solving for p, Initial residual = 0.0037483, Final residual = 0.000139745, No Iterations 116
time step continuity errors : sum local = 3.60039e-12, global = 3.40372e-20, cumulative = -7.36486e-20
DICPCG:  Solving for p, Initial residual = 0.000274438, Final residual = 8.11087e-07, No Iterations 120
time step continuity errors : sum local = 2.05944e-14, global = -5.40303e-21, cumulative = -7.90516e-20
ExecutionTime = 0.28 s  ClockTime = 1 s

Time = 0.002

Courant Number mean: 0.0545456 max: 0.13685
smoothSolver:  Solving for Ux, Initial residual = 0.0418565, Final residual = 7.5724e-08, No Iterations 2
smoothSolver:  Solving for Uy, Initial residual = 0.0272443, Final residual = 2.69797e-07, No Iterations 2
DICPCG:  Solving for p, Initial residual = 0.00334864, Final residual = 0.000136424, No Iterations 113
time step continuity errors : sum local = 3.46447e-12, global = 2.96957e-20, cumulative = -4.9356e-20
DICPCG:  Solving for p, Initial residual = 0.000253416, Final residual = 9.84069e-07, No Iterations 119
time step continuity errors : sum local = 2.48732e-14, global = -4.98677e-20, cumulative = -9.92237e-20
ExecutionTime = 0.3 s  ClockTime = 1 s

Time = 0.00225

Courant Number mean: 0.0545457 max: 0.136853
smoothSolver:  Solving for Ux, Initial residual = 0.0366745, Final residual = 6.62397e-08, No Iterations 2
smoothSolver:  Solving for Uy, Initial residual = 0.0237835, Final residual = 2.36729e-07, No Iterations 2
DICPCG:  Solving for p, Initial residual = 0.00327971, Final residual = 0.00015163, No Iterations 114
time step continuity errors : sum local = 3.83984e-12, global = 1.01377e-20, cumulative = -8.9086e-20
DICPCG:  Solving for p, Initial residual = 0.000275895, Final residual = 7.95906e-07, No Iterations 122
time step continuity errors : sum local = 1.99242e-14, global = -9.61107e-20, cumulative = -1.85197e-19
ExecutionTime = 0.33 s  ClockTime = 1 s

Time = 0.0025

Courant Number mean: 0.0545457 max: 0.136856
smoothSolver:  Solving for Ux, Initial residual = 0.0325005, Final residual = 5.85987e-08, No Iterations 2
smoothSolver:  Solving for Uy, Initial residual = 0.02099, Final residual = 2.10061e-07, No Iterations 2
DICPCG:  Solving for p, Initial residual = 0.00318779, Final residual = 0.00013196, No Iterations 114
time step continuity errors : sum local = 3.30824e-12, global = 4.55209e-20, cumulative = -1.39676e-19
DICPCG:  Solving for p, Initial residual = 0.000254573, Final residual = 8.24775e-07, No Iterations 122
time step continuity errors : sum local = 2.04678e-14, global = 1.91826e-20, cumulative = -1.20493e-19
ExecutionTime = 0.34 s  ClockTime = 1 s

Time = 0.00275

Courant Number mean: 0.0545457 max: 0.136858
smoothSolver:  Solving for Ux, Initial residual = 0.0291617, Final residual = 5.24807e-08, No Iterations 2
smoothSolver:  Solving for Uy, Initial residual = 0.0187773, Final residual = 1.88929e-07, No Iterations 2
DICPCG:  Solving for p, Initial residual = 0.00314669, Final residual = 0.000136303, No Iterations 114
time step continuity errors : sum local = 3.38801e-12, global = -4.29676e-20, cumulative = -1.63461e-19
DICPCG:  Solving for p, Initial residual = 0.000262117, Final residual = 8.79005e-07, No Iterations 122
time step continuity errors : sum local = 2.16031e-14, global = -1.08478e-19, cumulative = -2.71939e-19
ExecutionTime = 0.36 s  ClockTime = 1 s

Time = 0.003

Courant Number mean: 0.0545457 max: 0.13686
smoothSolver:  Solving for Ux, Initial residual = 0.0264041, Final residual = 4.74249e-08, No Iterations 2
smoothSolver:  Solving for Uy, Initial residual = 0.0169577, Final residual = 1.7154e-07, No Iterations 2
DICPCG:  Solving for p, Initial residual = 0.00311037, Final residual = 0.000130434, No Iterations 114
time step continuity errors : sum local = 3.21197e-12, global = 4.50526e-20, cumulative = -2.26886e-19
DICPCG:  Solving for p, Initial residual = 0.000257348, Final residual = 9.83661e-07, No Iterations 121
time step continuity errors : sum local = 2.3972e-14, global = 1.0941e-19, cumulative = -1.17476e-19
ExecutionTime = 0.39 s  ClockTime = 1 s

Time = 0.00325

Courant Number mean: 0.0545457 max: 0.136862
smoothSolver:  Solving for Ux, Initial residual = 0.024101, Final residual = 4.32047e-08, No Iterations 2
smoothSolver:  Solving for Uy, Initial residual = 0.0154473, Final residual = 1.57093e-07, No Iterations 2
DICPCG:  Solving for p, Initial residual = 0.00306733, Final residual = 0.000125171, No Iterations 114
time step continuity errors : sum local = 3.05536e-12, global = 5.70234e-20, cumulative = -6.0453e-20
DICPCG:  Solving for p, Initial residual = 0.000253077, Final residual = 9.38571e-07, No Iterations 121
time step continuity errors : sum local = 2.26705e-14, global = -2.92153e-20, cumulative = -8.96682e-20
ExecutionTime = 0.41 s  ClockTime = 1 s

Time = 0.0035

Courant Number mean: 0.0545457 max: 0.136864
smoothSolver:  Solving for Ux, Initial residual = 0.0221502, Final residual = 3.96409e-08, No Iterations 2
smoothSolver:  Solving for Uy, Initial residual = 0.0141751, Final residual = 1.44907e-07, No Iterations 2
DICPCG:  Solving for p, Initial residual = 0.00303334, Final residual = 0.000118127, No Iterations 114
time step continuity errors : sum local = 2.85949e-12, global = 3.24686e-20, cumulative = -5.71997e-20
DICPCG:  Solving for p, Initial residual = 0.000246806, Final residual = 7.99352e-07, No Iterations 122
time step continuity errors : sum local = 1.91331e-14, global = 4.87294e-20, cumulative = -8.47023e-21
ExecutionTime = 0.44 s  ClockTime = 2 s

Time = 0.00375

Courant Number mean: 0.0545457 max: 0.136865
smoothSolver:  Solving for Ux, Initial residual = 0.0204814, Final residual = 3.6588e-08, No Iterations 2
smoothSolver:  Solving for Uy, Initial residual = 0.0130927, Final residual = 1.34524e-07, No Iterations 2
DICPCG:  Solving for p, Initial residual = 0.00301335, Final residual = 0.000109911, No Iterations 114
time step continuity errors : sum local = 2.64026e-12, global = 5.04705e-20, cumulative = 4.20003e-20
DICPCG:  Solving for p, Initial residual = 0.000239887, Final residual = 8.14133e-07, No Iterations 122
time step continuity errors : sum local = 1.93284e-14, global = 4.72571e-20, cumulative = 8.92574e-20
ExecutionTime = 0.45 s  ClockTime = 2 s

Time = 0.004

Courant Number mean: 0.0545458 max: 0.136867
smoothSolver:  Solving for Ux, Initial residual = 0.0190403, Final residual = 3.395e-08, No Iterations 2
smoothSolver:  Solving for Uy, Initial residual = 0.0121635, Final residual = 1.25645e-07, No Iterations 2
DICPCG:  Solving for p, Initial residual = 0.00302648, Final residual = 0.000144877, No Iterations 113
time step continuity errors : sum local = 3.45538e-12, global = -7.24434e-20, cumulative = 1.6814e-20
DICPCG:  Solving for p, Initial residual = 0.000275086, Final residual = 9.3112e-07, No Iterations 122
time step continuity errors : sum local = 2.19842e-14, global = 5.60215e-20, cumulative = 7.28355e-20
ExecutionTime = 0.47 s  ClockTime = 2 s

Time = 0.00425

Courant Number mean: 0.0545458 max: 0.136867
smoothSolver:  Solving for Ux, Initial residual = 0.0177859, Final residual = 3.16515e-08, No Iterations 2
smoothSolver:  Solving for Uy, Initial residual = 0.0113619, Final residual = 1.17987e-07, No Iterations 2
DICPCG:  Solving for p, Initial residual = 0.00305408, Final residual = 0.000132393, No Iterations 113
time step continuity errors : sum local = 3.13829e-12, global = -8.47193e-20, cumulative = -1.18839e-20
DICPCG:  Solving for p, Initial residual = 0.000263452, Final residual = 8.97556e-07, No Iterations 122
time step continuity errors : sum local = 2.10657e-14, global = 2.34782e-21, cumulative = -9.53603e-21
ExecutionTime = 0.5 s  ClockTime = 2 s

Time = 0.0045

Courant Number mean: 0.0545458 max: 0.136868
smoothSolver:  Solving for Ux, Initial residual = 0.0166867, Final residual = 2.9635e-08, No Iterations 2
smoothSolver:  Solving for Uy, Initial residual = 0.0106707, Final residual = 1.1129e-07, No Iterations 2
DICPCG:  Solving for p, Initial residual = 0.00306397, Final residual = 0.000119856, No Iterations 113
time step continuity errors : sum local = 2.82645e-12, global = -6.95645e-20, cumulative = -7.91005e-20
DICPCG:  Solving for p, Initial residual = 0.000251383, Final residual = 8.16314e-07, No Iterations 122
time step continuity errors : sum local = 1.90634e-14, global = -2.93883e-20, cumulative = -1.08489e-19
ExecutionTime = 0.52 s  ClockTime = 2 s

Time = 0.00475

Courant Number mean: 0.0545458 max: 0.136868
smoothSolver:  Solving for Ux, Initial residual = 0.0157176, Final residual = 2.78549e-08, No Iterations 2
smoothSolver:  Solving for Uy, Initial residual = 0.0100649, Final residual = 1.0542e-07, No Iterations 2
DICPCG:  Solving for p, Initial residual = 0.00306261, Final residual = 0.000144554, No Iterations 112
time step continuity errors : sum local = 3.39542e-12, global = -4.67362e-20, cumulative = -1.55225e-19
DICPCG:  Solving for p, Initial residual = 0.000275616, Final residual = 7.6481e-07, No Iterations 122
time step continuity errors : sum local = 1.78326e-14, global = 3.5589e-20, cumulative = -1.19636e-19
ExecutionTime = 0.53 s  ClockTime = 2 s

Time = 0.005

Courant Number mean: 0.0545458 max: 0.136868
smoothSolver:  Solving for Ux, Initial residual = 0.0148588, Final residual = 2.62743e-08, No Iterations 2
smoothSolver:  Solving for Uy, Initial residual = 0.00953239, Final residual = 1.00258e-07, No Iterations 2
DICPCG:  Solving for p, Initial residual = 0.00305508, Final residual = 0.000127413, No Iterations 112
time step continuity errors : sum local = 2.98358e-12, global = -3.84156e-20, cumulative = -1.58052e-19
DICPCG:  Solving for p, Initial residual = 0.000259428, Final residual = 8.66365e-07, No Iterations 121
time step continuity errors : sum local = 2.01385e-14, global = -8.56559e-20, cumulative = -2.43707e-19
ExecutionTime = 0.56 s  ClockTime = 2 s

Time = 0.00525

Courant Number mean: 0.0545458 max: 0.136868
smoothSolver:  Solving for Ux, Initial residual = 0.0140938, Final residual = 2.48663e-08, No Iterations 2
smoothSolver:  Solving for Uy, Initial residual = 0.0090644, Final residual = 9.5652e-08, No Iterations 2
DICPCG:  Solving for p, Initial residual = 0.00303417, Final residual = 0.00014527, No Iterations 111
time step continuity errors : sum local = 3.40094e-12, global = 6.23058e-20, cumulative = -1.81402e-19
DICPCG:  Solving for p, Initial residual = 0.000277646, Final residual = 7.95168e-07, No Iterations 121
time step continuity errors : sum local = 1.8442e-14, global = -1.29237e-19, cumulative = -3.10639e-19
ExecutionTime = 0.58 s  ClockTime = 2 s

Time = 0.0055

Courant Number mean: 0.0545458 max: 0.136868
smoothSolver:  Solving for Ux, Initial residual = 0.0134093, Final residual = 2.36114e-08, No Iterations 2
smoothSolver:  Solving for Uy, Initial residual = 0.00864709, Final residual = 9.15234e-08, No Iterations 2
DICPCG:  Solving for p, Initial residual = 0.00301253, Final residual = 0.000145906, No Iterations 110
time step continuity errors : sum local = 3.42551e-12, global = -4.07486e-20, cumulative = -3.51388e-19
DICPCG:  Solving for p, Initial residual = 0.000277136, Final residual = 8.24182e-07, No Iterations 113
time step continuity errors : sum local = 1.92869e-14, global = 6.53375e-20, cumulative = -2.8605e-19
ExecutionTime = 0.59 s  ClockTime = 2 s

Time = 0.00575

Courant Number mean: 0.0545458 max: 0.136867
smoothSolver:  Solving for Ux, Initial residual = 0.0127942, Final residual = 2.24861e-08, No Iterations 2
smoothSolver:  Solving for Uy, Initial residual = 0.00827314, Final residual = 8.7801e-08, No Iterations 2
DICPCG:  Solving for p, Initial residual = 0.00301417, Final residual = 0.000113819, No Iterations 3
time step continuity errors : sum local = 2.64627e-12, global = 7.15826e-20, cumulative = -2.14467e-19
DICPCG:  Solving for p, Initial residual = 0.000224539, Final residual = 7.2065e-07, No Iterations 122
time step continuity errors : sum local = 1.68114e-14, global = -7.97513e-20, cumulative = -2.94219e-19
ExecutionTime = 0.61 s  ClockTime = 2 s

Time = 0.006

Courant Number mean: 0.0545458 max: 0.136866
smoothSolver:  Solving for Ux, Initial residual = 0.0122393, Final residual = 2.14727e-08, No Iterations 2
smoothSolver:  Solving for Uy, Initial residual = 0.00793728, Final residual = 8.44947e-08, No Iterations 2
DICPCG:  Solving for p, Initial residual = 0.0030043, Final residual = 0.00014524, No Iterations 2
time step continuity errors : sum local = 3.37947e-12, global = -6.21911e-21, cumulative = -3.00438e-19
DICPCG:  Solving for p, Initial residual = 0.000228355, Final residual = 9.40993e-07, No Iterations 125
time step continuity errors : sum local = 2.19928e-14, global = 4.89348e-21, cumulative = -2.95544e-19
ExecutionTime = 0.63 s  ClockTime = 2 s

Time = 0.00625

Courant Number mean: 0.0545458 max: 0.136865
smoothSolver:  Solving for Ux, Initial residual = 0.0117367, Final residual = 2.05524e-08, No Iterations 2
smoothSolver:  Solving for Uy, Initial residual = 0.00763345, Final residual = 8.15165e-08, No Iterations 2
DICPCG:  Solving for p, Initial residual = 0.00298984, Final residual = 0.000124592, No Iterations 52
time step continuity errors : sum local = 3.43378e-12, global = -5.06881e-20, cumulative = -3.46232e-19
DICPCG:  Solving for p, Initial residual = 0.000250189, Final residual = 7.19437e-07, No Iterations 121
time step continuity errors : sum local = 1.68392e-14, global = 9.93836e-21, cumulative = -3.36294e-19
ExecutionTime = 0.64 s  ClockTime = 2 s

Time = 0.0065

Courant Number mean: 0.0545458 max: 0.136864
smoothSolver:  Solving for Ux, Initial residual = 0.0112792, Final residual = 1.97125e-08, No Iterations 2
smoothSolver:  Solving for Uy, Initial residual = 0.00736086, Final residual = 7.88444e-08, No Iterations 2
DICPCG:  Solving for p, Initial residual = 0.00296585, Final residual = 0.00014053, No Iterations 54
time step continuity errors : sum local = 4.17184e-12, global = 4.74412e-20, cumulative = -2.88853e-19
DICPCG:  Solving for p, Initial residual = 0.000267172, Final residual = 8.92685e-07, No Iterations 120
time step continuity errors : sum local = 2.09553e-14, global = 7.09314e-20, cumulative = -2.17922e-19
ExecutionTime = 0.66 s  ClockTime = 2 s

Time = 0.00675

Courant Number mean: 0.0545458 max: 0.136862
smoothSolver:  Solving for Ux, Initial residual = 0.0108612, Final residual = 1.89425e-08, No Iterations 2
smoothSolver:  Solving for Uy, Initial residual = 0.00711227, Final residual = 7.64063e-08, No Iterations 2
DICPCG:  Solving for p, Initial residual = 0.00293563, Final residual = 0.000141004, No Iterations 110
time step continuity errors : sum local = 3.33162e-12, global = -1.33924e-19, cumulative = -3.51845e-19
DICPCG:  Solving for p, Initial residual = 0.000266088, Final residual = 9.64173e-07, No Iterations 120
time step continuity errors : sum local = 2.27932e-14, global = -8.77981e-20, cumulative = -4.39643e-19
ExecutionTime = 0.67 s  ClockTime = 2 s

Time = 0.007

Courant Number mean: 0.0545458 max: 0.136861
smoothSolver:  Solving for Ux, Initial residual = 0.0104773, Final residual = 9.68512e-06, No Iterations 1
smoothSolver:  Solving for Uy, Initial residual = 0.00688679, Final residual = 7.41401e-08, No Iterations 2
DICPCG:  Solving for p, Initial residual = 0.0029116, Final residual = 0.000135368, No Iterations 111
time step continuity errors : sum local = 3.20519e-12, global = 5.062e-21, cumulative = -4.34581e-19
DICPCG:  Solving for p, Initial residual = 0.000260291, Final residual = 6.87702e-07, No Iterations 121
time step continuity errors : sum local = 1.6335e-14, global = -3.7629e-20, cumulative = -4.7221e-19
ExecutionTime = 0.7 s  ClockTime = 2 s

Time = 0.00725

Courant Number mean: 0.0545458 max: 0.13686
smoothSolver:  Solving for Ux, Initial residual = 0.0101231, Final residual = 9.3503e-06, No Iterations 1
smoothSolver:  Solving for Uy, Initial residual = 0.0066781, Final residual = 7.20493e-08, No Iterations 2
DICPCG:  Solving for p, Initial residual = 0.00289958, Final residual = 0.000142058, No Iterations 111
time step continuity errors : sum local = 3.37977e-12, global = -4.03436e-20, cumulative = -5.12554e-19
DICPCG:  Solving for p, Initial residual = 0.000264831, Final residual = 9.72887e-07, No Iterations 120
time step continuity errors : sum local = 2.32315e-14, global = 4.6534e-21, cumulative = -5.07901e-19
ExecutionTime = 0.72 s  ClockTime = 2 s

Time = 0.0075

Courant Number mean: 0.0545458 max: 0.136858
smoothSolver:  Solving for Ux, Initial residual = 0.00979467, Final residual = 9.03998e-06, No Iterations 1
smoothSolver:  Solving for Uy, Initial residual = 0.00648316, Final residual = 7.00827e-08, No Iterations 2
DICPCG:  Solving for p, Initial residual = 0.00290084, Final residual = 0.000144018, No Iterations 111
time step continuity errors : sum local = 3.4452e-12, global = -2.1585e-20, cumulative = -5.29486e-19
DICPCG:  Solving for p, Initial residual = 0.000265428, Final residual = 9.11297e-07, No Iterations 120
time step continuity errors : sum local = 2.18937e-14, global = 1.67787e-20, cumulative = -5.12707e-19
ExecutionTime = 0.74 s  ClockTime = 2 s

Time = 0.00775

Courant Number mean: 0.0545459 max: 0.136856
smoothSolver:  Solving for Ux, Initial residual = 0.00948872, Final residual = 8.75062e-06, No Iterations 1
smoothSolver:  Solving for Uy, Initial residual = 0.00630334, Final residual = 6.82513e-08, No Iterations 2
DICPCG:  Solving for p, Initial residual = 0.00298299, Final residual = 0.000134412, No Iterations 53
time step continuity errors : sum local = 3.9461e-12, global = 9.20276e-20, cumulative = -4.20679e-19
DICPCG:  Solving for p, Initial residual = 0.000255613, Final residual = 7.92251e-07, No Iterations 120
time step continuity errors : sum local = 1.90839e-14, global = 2.84194e-20, cumulative = -3.9226e-19
ExecutionTime = 0.75 s  ClockTime = 2 s

Time = 0.008

Courant Number mean: 0.0545459 max: 0.136855
smoothSolver:  Solving for Ux, Initial residual = 0.00919283, Final residual = 8.47113e-06, No Iterations 1
smoothSolver:  Solving for Uy, Initial residual = 0.00612412, Final residual = 6.64514e-08, No Iterations 2
DICPCG:  Solving for p, Initial residual = 0.00295084, Final residual = 0.000131141, No Iterations 54
time step continuity errors : sum local = 3.99125e-12, global = 3.45071e-20, cumulative = -3.57753e-19
DICPCG:  Solving for p, Initial residual = 0.000248821, Final residual = 9.09898e-07, No Iterations 119
time step continuity errors : sum local = 2.19724e-14, global = -1.9507e-20, cumulative = -3.7726e-19
ExecutionTime = 0.77 s  ClockTime = 2 s

Time = 0.00825

Courant Number mean: 0.0545459 max: 0.136853
smoothSolver:  Solving for Ux, Initial residual = 0.00891641, Final residual = 8.21009e-06, No Iterations 1
smoothSolver:  Solving for Uy, Initial residual = 0.00595781, Final residual = 6.47365e-08, No Iterations 2
DICPCG:  Solving for p, Initial residual = 0.00291179, Final residual = 0.000126138, No Iterations 111
time step continuity errors : sum local = 3.06133e-12, global = -1.07364e-20, cumulative = -3.87996e-19
DICPCG:  Solving for p, Initial residual = 0.000242772, Final residual = 8.40457e-07, No Iterations 120
time step continuity errors : sum local = 2.04615e-14, global = -2.56519e-20, cumulative = -4.13648e-19
ExecutionTime = 0.8 s  ClockTime = 2 s

Time = 0.0085

Courant Number mean: 0.0545459 max: 0.136851
smoothSolver:  Solving for Ux, Initial residual = 0.00866212, Final residual = 7.96995e-06, No Iterations 1
smoothSolver:  Solving for Uy, Initial residual = 0.00580797, Final residual = 6.31351e-08, No Iterations 2
DICPCG:  Solving for p, Initial residual = 0.00291904, Final residual = 0.000117978, No Iterations 111
time step continuity errors : sum local = 2.87798e-12, global = 5.09164e-22, cumulative = -4.13139e-19
DICPCG:  Solving for p, Initial residual = 0.000233006, Final residual = 8.63022e-07, No Iterations 120
time step continuity errors : sum local = 2.11529e-14, global = -4.48322e-20, cumulative = -4.57971e-19
ExecutionTime = 0.81 s  ClockTime = 2 s

Time = 0.00875

Courant Number mean: 0.0545459 max: 0.13685
smoothSolver:  Solving for Ux, Initial residual = 0.00842404, Final residual = 7.7449e-06, No Iterations 1
smoothSolver:  Solving for Uy, Initial residual = 0.00566636, Final residual = 6.16691e-08, No Iterations 2
DICPCG:  Solving for p, Initial residual = 0.00294734, Final residual = 0.000146205, No Iterations 110
time step continuity errors : sum local = 3.58906e-12, global = 1.10112e-20, cumulative = -4.4696e-19
DICPCG:  Solving for p, Initial residual = 0.000258192, Final residual = 7.85453e-07, No Iterations 120
time step continuity errors : sum local = 1.93154e-14, global = -4.27138e-20, cumulative = -4.89674e-19
ExecutionTime = 0.83 s  ClockTime = 2 s

Time = 0.009

Courant Number mean: 0.0545459 max: 0.136848
smoothSolver:  Solving for Ux, Initial residual = 0.00819989, Final residual = 7.53277e-06, No Iterations 1
smoothSolver:  Solving for Uy, Initial residual = 0.0055321, Final residual = 6.0275e-08, No Iterations 2
DICPCG:  Solving for p, Initial residual = 0.00295629, Final residual = 0.000144808, No Iterations 110
time step continuity errors : sum local = 3.57378e-12, global = -6.02853e-20, cumulative = -5.49959e-19
DICPCG:  Solving for p, Initial residual = 0.0002547, Final residual = 9.3076e-07, No Iterations 120
time step continuity errors : sum local = 2.31122e-14, global = -8.54316e-21, cumulative = -5.58502e-19
ExecutionTime = 0.84 s  ClockTime = 2 s

Time = 0.00925

Courant Number mean: 0.0545459 max: 0.136847
smoothSolver:  Solving for Ux, Initial residual = 0.00798896, Final residual = 7.33298e-06, No Iterations 1
smoothSolver:  Solving for Uy, Initial residual = 0.00540713, Final residual = 5.89747e-08, No Iterations 2
DICPCG:  Solving for p, Initial residual = 0.00296004, Final residual = 0.000101322, No Iterations 111
time step continuity errors : sum local = 2.5167e-12, global = -1.03733e-20, cumulative = -5.68875e-19
DICPCG:  Solving for p, Initial residual = 0.000212204, Final residual = 6.87029e-07, No Iterations 120
time step continuity errors : sum local = 1.70912e-14, global = -5.6324e-20, cumulative = -6.25199e-19
ExecutionTime = 0.88 s  ClockTime = 2 s

Time = 0.0095

Courant Number mean: 0.0545459 max: 0.136845
smoothSolver:  Solving for Ux, Initial residual = 0.00778963, Final residual = 7.14398e-06, No Iterations 1
smoothSolver:  Solving for Uy, Initial residual = 0.00528889, Final residual = 5.77399e-08, No Iterations 2
DICPCG:  Solving for p, Initial residual = 0.00323995, Final residual = 0.000158859, No Iterations 110
time step continuity errors : sum local = 4.00883e-12, global = -3.93499e-20, cumulative = -6.64549e-19
DICPCG:  Solving for p, Initial residual = 0.000273968, Final residual = 8.76881e-07, No Iterations 120
time step continuity errors : sum local = 2.18222e-14, global = 1.8535e-20, cumulative = -6.46014e-19
ExecutionTime = 0.89 s  ClockTime = 2 s

Time = 0.00975

Courant Number mean: 0.0545459 max: 0.136844
smoothSolver:  Solving for Ux, Initial residual = 0.00757681, Final residual = 6.94256e-06, No Iterations 1
smoothSolver:  Solving for Uy, Initial residual = 0.00515247, Final residual = 5.63771e-08, No Iterations 2
DICPCG:  Solving for p, Initial residual = 0.00328245, Final residual = 0.000143434, No Iterations 114
time step continuity errors : sum local = 3.59276e-12, global = 3.99572e-20, cumulative = -6.06057e-19
DICPCG:  Solving for p, Initial residual = 0.000264565, Final residual = 9.27313e-07, No Iterations 121
time step continuity errors : sum local = 2.30167e-14, global = -4.60558e-20, cumulative = -6.52113e-19
ExecutionTime = 0.91 s  ClockTime = 2 s

Time = 0.01

Courant Number mean: 0.0545459 max: 0.136844
smoothSolver:  Solving for Ux, Initial residual = 0.00735356, Final residual = 6.73176e-06, No Iterations 1
smoothSolver:  Solving for Uy, Initial residual = 0.00500102, Final residual = 5.48867e-08, No Iterations 2
DICPCG:  Solving for p, Initial residual = 0.00306757, Final residual = 0.000150932, No Iterations 2
time step continuity errors : sum local = 3.73836e-12, global = -5.25731e-20, cumulative = -7.04686e-19
DICPCG:  Solving for p, Initial residual = 0.000220412, Final residual = 8.61386e-07, No Iterations 126
time step continuity errors : sum local = 2.15068e-14, global = -1.09874e-20, cumulative = -7.15673e-19
ExecutionTime = 0.92 s  ClockTime = 2 s

Time = 0.01025

Courant Number mean: 0.054546 max: 0.136844
smoothSolver:  Solving for Ux, Initial residual = 0.0071651, Final residual = 6.55335e-06, No Iterations 1
smoothSolver:  Solving for Uy, Initial residual = 0.0048791, Final residual = 5.35926e-08, No Iterations 2
DICPCG:  Solving for p, Initial residual = 0.00303493, Final residual = 0.000135511, No Iterations 2
time step continuity errors : sum local = 3.35899e-12, global = 3.30917e-20, cumulative = -6.82582e-19
DICPCG:  Solving for p, Initial residual = 0.000205548, Final residual = 8.33504e-07, No Iterations 124
time step continuity errors : sum local = 2.07201e-14, global = 1.88767e-19, cumulative = -4.93815e-19
ExecutionTime = 0.94 s  ClockTime = 2 s

Time = 0.0105

Courant Number mean: 0.054546 max: 0.136844
smoothSolver:  Solving for Ux, Initial residual = 0.00699085, Final residual = 6.38827e-06, No Iterations 1
smoothSolver:  Solving for Uy, Initial residual = 0.00476652, Final residual = 5.23653e-08, No Iterations 2
DICPCG:  Solving for p, Initial residual = 0.00303888, Final residual = 0.000139756, No Iterations 3
time step continuity errors : sum local = 3.47159e-12, global = 3.39817e-20, cumulative = -4.59833e-19
DICPCG:  Solving for p, Initial residual = 0.000236854, Final residual = 7.63376e-07, No Iterations 123
time step continuity errors : sum local = 1.89928e-14, global = 1.20874e-19, cumulative = -3.38958e-19
ExecutionTime = 0.95 s  ClockTime = 2 s

Time = 0.01075

Courant Number mean: 0.054546 max: 0.136844
smoothSolver:  Solving for Ux, Initial residual = 0.00682201, Final residual = 6.22871e-06, No Iterations 1
smoothSolver:  Solving for Uy, Initial residual = 0.00465466, Final residual = 5.11415e-08, No Iterations 2
DICPCG:  Solving for p, Initial residual = 0.0031087, Final residual = 0.000139454, No Iterations 51
time step continuity errors : sum local = 3.97171e-12, global = 8.07527e-20, cumulative = -2.58206e-19
DICPCG:  Solving for p, Initial residual = 0.000270174, Final residual = 8.80486e-07, No Iterations 113
time step continuity errors : sum local = 2.20992e-14, global = -6.79881e-20, cumulative = -3.26194e-19
ExecutionTime = 0.97 s  ClockTime = 2 s

Time = 0.011

Courant Number mean: 0.054546 max: 0.136844
smoothSolver:  Solving for Ux, Initial residual = 0.00665997, Final residual = 6.07568e-06, No Iterations 1
smoothSolver:  Solving for Uy, Initial residual = 0.00454529, Final residual = 4.99536e-08, No Iterations 2
DICPCG:  Solving for p, Initial residual = 0.00334721, Final residual = 0.000158293, No Iterations 53
time step continuity errors : sum local = 4.7182e-12, global = -2.04995e-20, cumulative = -3.46693e-19
DICPCG:  Solving for p, Initial residual = 0.000293113, Final residual = 8.15641e-07, No Iterations 120
time step continuity errors : sum local = 2.03823e-14, global = -5.36312e-20, cumulative = -4.00325e-19
ExecutionTime = 0.99 s  ClockTime = 2 s

Time = 0.01125

Courant Number mean: 0.054546 max: 0.136844
smoothSolver:  Solving for Ux, Initial residual = 0.00650321, Final residual = 5.92745e-06, No Iterations 1
smoothSolver:  Solving for Uy, Initial residual = 0.00443733, Final residual = 4.88054e-08, No Iterations 2
DICPCG:  Solving for p, Initial residual = 0.00357903, Final residual = 0.000144492, No Iterations 110
time step continuity errors : sum local = 3.61252e-12, global = 4.64303e-20, cumulative = -3.53894e-19
DICPCG:  Solving for p, Initial residual = 0.000293898, Final residual = 9.0473e-07, No Iterations 121
time step continuity errors : sum local = 2.2569e-14, global = -6.83215e-20, cumulative = -4.22216e-19
ExecutionTime = 1 s  ClockTime = 2 s

Time = 0.0115

Courant Number mean: 0.054546 max: 0.136844
smoothSolver:  Solving for Ux, Initial residual = 0.00635007, Final residual = 5.7826e-06, No Iterations 1
smoothSolver:  Solving for Uy, Initial residual = 0.00432957, Final residual = 4.77103e-08, No Iterations 2
DICPCG:  Solving for p, Initial residual = 0.00360233, Final residual = 0.000169894, No Iterations 110
time step continuity errors : sum local = 4.25065e-12, global = -2.5949e-20, cumulative = -4.48165e-19
DICPCG:  Solving for p, Initial residual = 0.000321716, Final residual = 9.846e-07, No Iterations 111
time step continuity errors : sum local = 2.47172e-14, global = 5.00488e-20, cumulative = -3.98116e-19
ExecutionTime = 1.02 s  ClockTime = 2 s

Time = 0.01175

Courant Number mean: 0.054546 max: 0.136844
smoothSolver:  Solving for Ux, Initial residual = 0.00619999, Final residual = 5.64066e-06, No Iterations 1
smoothSolver:  Solving for Uy, Initial residual = 0.00422236, Final residual = 4.66747e-08, No Iterations 2
DICPCG:  Solving for p, Initial residual = 0.00327792, Final residual = 0.000134756, No Iterations 111
time step continuity errors : sum local = 3.34935e-12, global = -6.68046e-20, cumulative = -4.64921e-19
DICPCG:  Solving for p, Initial residual = 0.000282489, Final residual = 9.43181e-07, No Iterations 120
time step continuity errors : sum local = 2.34637e-14, global = 6.10882e-20, cumulative = -4.03832e-19
ExecutionTime = 1.05 s  ClockTime = 2 s

Time = 0.012

Courant Number mean: 0.054546 max: 0.136844
smoothSolver:  Solving for Ux, Initial residual = 0.00605883, Final residual = 5.50701e-06, No Iterations 1
smoothSolver:  Solving for Uy, Initial residual = 0.00412254, Final residual = 4.56986e-08, No Iterations 2
DICPCG:  Solving for p, Initial residual = 0.00334689, Final residual = 0.000153982, No Iterations 111
time step continuity errors : sum local = 3.82333e-12, global = -8.09733e-20, cumulative = -4.84806e-19
DICPCG:  Solving for p, Initial residual = 0.000302182, Final residual = 9.72302e-07, No Iterations 112
time step continuity errors : sum local = 2.44644e-14, global = -3.51318e-20, cumulative = -5.19938e-19
ExecutionTime = 1.06 s  ClockTime = 2 s

Time = 0.01225

Courant Number mean: 0.054546 max: 0.136844
smoothSolver:  Solving for Ux, Initial residual = 0.00592277, Final residual = 5.37819e-06, No Iterations 1
smoothSolver:  Solving for Uy, Initial residual = 0.00403038, Final residual = 4.47704e-08, No Iterations 2
DICPCG:  Solving for p, Initial residual = 0.00339239, Final residual = 0.000126405, No Iterations 112
time step continuity errors : sum local = 3.13399e-12, global = -2.70101e-20, cumulative = -5.46948e-19
DICPCG:  Solving for p, Initial residual = 0.000276136, Final residual = 7.84085e-07, No Iterations 121
time step continuity errors : sum local = 1.94062e-14, global = 5.98775e-20, cumulative = -4.8707e-19
ExecutionTime = 1.08 s  ClockTime = 2 s

Time = 0.0125

Courant Number mean: 0.054546 max: 0.136844
smoothSolver:  Solving for Ux, Initial residual = 0.00579161, Final residual = 5.25438e-06, No Iterations 1
smoothSolver:  Solving for Uy, Initial residual = 0.00394327, Final residual = 4.38679e-08, No Iterations 2
DICPCG:  Solving for p, Initial residual = 0.00343467, Final residual = 0.000140688, No Iterations 112
time step continuity errors : sum local = 3.48298e-12, global = -1.36566e-20, cumulative = -5.00727e-19
DICPCG:  Solving for p, Initial residual = 0.000291417, Final residual = 9.92422e-07, No Iterations 117
time step continuity errors : sum local = 2.484e-14, global = -8.51894e-20, cumulative = -5.85916e-19
ExecutionTime = 1.11 s  ClockTime = 2 s

Time = 0.01275

Courant Number mean: 0.054546 max: 0.136844
smoothSolver:  Solving for Ux, Initial residual = 0.00566656, Final residual = 5.13642e-06, No Iterations 1
smoothSolver:  Solving for Uy, Initial residual = 0.00386129, Final residual = 4.29768e-08, No Iterations 2
DICPCG:  Solving for p, Initial residual = 0.00380143, Final residual = 0.000141794, No Iterations 113
time step continuity errors : sum local = 3.50984e-12, global = -3.96308e-20, cumulative = -6.25547e-19
DICPCG:  Solving for p, Initial residual = 0.000309072, Final residual = 7.48595e-07, No Iterations 122
time step continuity errors : sum local = 1.84236e-14, global = -3.17895e-20, cumulative = -6.57336e-19
ExecutionTime = 1.13 s  ClockTime = 2 s

Time = 0.013

Courant Number mean: 0.054546 max: 0.136844
smoothSolver:  Solving for Ux, Initial residual = 0.00552792, Final residual = 5.00632e-06, No Iterations 1
smoothSolver:  Solving for Uy, Initial residual = 0.00376558, Final residual = 4.19513e-08, No Iterations 2
DICPCG:  Solving for p, Initial residual = 0.00440149, Final residual = 0.000162674, No Iterations 116
time step continuity errors : sum local = 3.99801e-12, global = 1.97021e-20, cumulative = -6.37634e-19
DICPCG:  Solving for p, Initial residual = 0.000350579, Final residual = 9.47761e-07, No Iterations 123
time step continuity errors : sum local = 2.287e-14, global = 1.12556e-19, cumulative = -5.25078e-19
ExecutionTime = 1.14 s  ClockTime = 2 s

Time = 0.01325

Courant Number mean: 0.054546 max: 0.136844
smoothSolver:  Solving for Ux, Initial residual = 0.00536345, Final residual = 4.85289e-06, No Iterations 1
smoothSolver:  Solving for Uy, Initial residual = 0.00364097, Final residual = 4.07354e-08, No Iterations 2
DICPCG:  Solving for p, Initial residual = 0.00394108, Final residual = 0.000163126, No Iterations 112
time step continuity errors : sum local = 3.95795e-12, global = -4.20386e-20, cumulative = -5.67116e-19
DICPCG:  Solving for p, Initial residual = 0.000326578, Final residual = 7.9476e-07, No Iterations 122
time step continuity errors : sum local = 1.90686e-14, global = 1.22146e-20, cumulative = -5.54902e-19
ExecutionTime = 1.17 s  ClockTime = 2 s

Time = 0.0135

Courant Number mean: 0.054546 max: 0.136844
smoothSolver:  Solving for Ux, Initial residual = 0.0052362, Final residual = 4.73348e-06, No Iterations 1
smoothSolver:  Solving for Uy, Initial residual = 0.00354996, Final residual = 3.97576e-08, No Iterations 2
DICPCG:  Solving for p, Initial residual = 0.00388415, Final residual = 0.000174964, No Iterations 112
time step continuity errors : sum local = 4.20416e-12, global = 5.60579e-20, cumulative = -4.98844e-19
DICPCG:  Solving for p, Initial residual = 0.000336964, Final residual = 9.96299e-07, No Iterations 121
time step continuity errors : sum local = 2.38461e-14, global = 1.06406e-19, cumulative = -3.92438e-19
ExecutionTime = 1.19 s  ClockTime = 2 s

Time = 0.01375

Courant Number mean: 0.054546 max: 0.136844
smoothSolver:  Solving for Ux, Initial residual = 0.00511917, Final residual = 4.62357e-06, No Iterations 1
smoothSolver:  Solving for Uy, Initial residual = 0.0034667, Final residual = 3.88423e-08, No Iterations 2
DICPCG:  Solving for p, Initial residual = 0.00471127, Final residual = 0.000212232, No Iterations 114
time step continuity errors : sum local = 5.09695e-12, global = 3.53084e-21, cumulative = -3.88907e-19
DICPCG:  Solving for p, Initial residual = 0.000405494, Final residual = 7.65729e-07, No Iterations 123
time step continuity errors : sum local = 1.79083e-14, global = 1.62758e-20, cumulative = -3.72632e-19
ExecutionTime = 1.2 s  ClockTime = 2 s

Time = 0.014

Courant Number mean: 0.054546 max: 0.136844
smoothSolver:  Solving for Ux, Initial residual = 0.00496483, Final residual = 4.48009e-06, No Iterations 1
smoothSolver:  Solving for Uy, Initial residual = 0.00334534, Final residual = 3.76117e-08, No Iterations 2
DICPCG:  Solving for p, Initial residual = 0.00397286, Final residual = 0.000175129, No Iterations 112
time step continuity errors : sum local = 4.10457e-12, global = 7.44838e-20, cumulative = -2.98148e-19
DICPCG:  Solving for p, Initial residual = 0.000340504, Final residual = 9.74738e-07, No Iterations 115
time step continuity errors : sum local = 2.28468e-14, global = 1.04971e-19, cumulative = -1.93177e-19
ExecutionTime = 1.24 s  ClockTime = 2 s

Time = 0.01425

Courant Number mean: 0.054546 max: 0.136844
smoothSolver:  Solving for Ux, Initial residual = 0.0048633, Final residual = 4.38467e-06, No Iterations 1
smoothSolver:  Solving for Uy, Initial residual = 0.0032732, Final residual = 9.99316e-06, No Iterations 1
DICPCG:  Solving for p, Initial residual = 0.00418706, Final residual = 0.000192377, No Iterations 111
time step continuity errors : sum local = 4.49381e-12, global = -6.59088e-20, cumulative = -2.59085e-19
DICPCG:  Solving for p, Initial residual = 0.000361726, Final residual = 8.82268e-07, No Iterations 121
time step continuity errors : sum local = 2.05558e-14, global = 3.51543e-20, cumulative = -2.23931e-19
ExecutionTime = 1.26 s  ClockTime = 2 s

Time = 0.0145

Courant Number mean: 0.054546 max: 0.136844
smoothSolver:  Solving for Ux, Initial residual = 0.00477008, Final residual = 4.29688e-06, No Iterations 1
smoothSolver:  Solving for Uy, Initial residual = 0.00320777, Final residual = 9.79918e-06, No Iterations 1
DICPCG:  Solving for p, Initial residual = 0.00410807, Final residual = 0.000203719, No Iterations 56
time step continuity errors : sum local = 5.93009e-12, global = 2.95242e-20, cumulative = -1.94407e-19
DICPCG:  Solving for p, Initial residual = 0.00037068, Final residual = 9.8334e-07, No Iterations 117
time step continuity errors : sum local = 2.29743e-14, global = -3.14695e-21, cumulative = -1.97554e-19
ExecutionTime = 1.27 s  ClockTime = 2 s

Time = 0.01475

Courant Number mean: 0.054546 max: 0.136844
smoothSolver:  Solving for Ux, Initial residual = 0.004681, Final residual = 4.21314e-06, No Iterations 1
smoothSolver:  Solving for Uy, Initial residual = 0.00314516, Final residual = 9.62259e-06, No Iterations 1
DICPCG:  Solving for p, Initial residual = 0.00381745, Final residual = 0.000182275, No Iterations 52
time step continuity errors : sum local = 4.95818e-12, global = 6.85983e-21, cumulative = -1.90694e-19
DICPCG:  Solving for p, Initial residual = 0.000342376, Final residual = 8.23245e-07, No Iterations 121
time step continuity errors : sum local = 1.91432e-14, global = -3.89437e-20, cumulative = -2.29638e-19
ExecutionTime = 1.29 s  ClockTime = 2 s

Time = 0.015

Courant Number mean: 0.054546 max: 0.136844
smoothSolver:  Solving for Ux, Initial residual = 0.00459756, Final residual = 4.13439e-06, No Iterations 1
smoothSolver:  Solving for Uy, Initial residual = 0.00309147, Final residual = 9.45693e-06, No Iterations 1
DICPCG:  Solving for p, Initial residual = 0.00382968, Final residual = 0.000190743, No Iterations 4
time step continuity errors : sum local = 4.43071e-12, global = 3.34693e-20, cumulative = -1.96168e-19
DICPCG:  Solving for p, Initial residual = 0.0003035, Final residual = 8.93654e-07, No Iterations 125
time step continuity errors : sum local = 2.07595e-14, global = -6.06963e-20, cumulative = -2.56865e-19
ExecutionTime = 1.3 s  ClockTime = 2 s

Time = 0.01525

Courant Number mean: 0.054546 max: 0.136844
smoothSolver:  Solving for Ux, Initial residual = 0.00451913, Final residual = 4.06019e-06, No Iterations 1
smoothSolver:  Solving for Uy, Initial residual = 0.00304247, Final residual = 9.29988e-06, No Iterations 1
DICPCG:  Solving for p, Initial residual = 0.0038283, Final residual = 0.000173679, No Iterations 3
time step continuity errors : sum local = 4.03201e-12, global = 1.54278e-20, cumulative = -2.41437e-19
DICPCG:  Solving for p, Initial residual = 0.000288774, Final residual = 9.97024e-07, No Iterations 124
time step continuity errors : sum local = 2.31714e-14, global = 1.19665e-20, cumulative = -2.2947e-19
ExecutionTime = 1.32 s  ClockTime = 2 s

Time = 0.0155

Courant Number mean: 0.054546 max: 0.136844
smoothSolver:  Solving for Ux, Initial residual = 0.00444661, Final residual = 3.99183e-06, No Iterations 1
smoothSolver:  Solving for Uy, Initial residual = 0.00299797, Final residual = 9.16675e-06, No Iterations 1
DICPCG:  Solving for p, Initial residual = 0.00385246, Final residual = 0.000190011, No Iterations 110
time step continuity errors : sum local = 4.48005e-12, global = 1.72244e-20, cumulative = -2.12246e-19
DICPCG:  Solving for p, Initial residual = 0.000345882, Final residual = 8.80096e-07, No Iterations 120
time step continuity errors : sum local = 2.05652e-14, global = 3.16533e-20, cumulative = -1.80593e-19
ExecutionTime = 1.33 s  ClockTime = 2 s

Time = 0.01575

Courant Number mean: 0.054546 max: 0.136844
smoothSolver:  Solving for Ux, Initial residual = 0.00438259, Final residual = 3.93126e-06, No Iterations 1
smoothSolver:  Solving for Uy, Initial residual = 0.00296203, Final residual = 9.0576e-06, No Iterations 1
DICPCG:  Solving for p, Initial residual = 0.00416496, Final residual = 0.000187406, No Iterations 114
time step continuity errors : sum local = 4.39987e-12, global = 5.63542e-20, cumulative = -1.24238e-19
DICPCG:  Solving for p, Initial residual = 0.000348307, Final residual = 8.97682e-07, No Iterations 121
time step continuity errors : sum local = 2.12063e-14, global = 2.36868e-20, cumulative = -1.00552e-19
ExecutionTime = 1.35 s  ClockTime = 2 s

Time = 0.016

Courant Number mean: 0.054546 max: 0.136844
smoothSolver:  Solving for Ux, Initial residual = 0.00433691, Final residual = 3.8872e-06, No Iterations 1
smoothSolver:  Solving for Uy, Initial residual = 0.00294554, Final residual = 8.9974e-06, No Iterations 1
DICPCG:  Solving for p, Initial residual = 0.00407768, Final residual = 0.000187388, No Iterations 112
time step continuity errors : sum local = 4.44714e-12, global = -2.18027e-20, cumulative = -1.22354e-19
DICPCG:  Solving for p, Initial residual = 0.000364242, Final residual = 8.9902e-07, No Iterations 122
time step continuity errors : sum local = 2.11026e-14, global = 2.98573e-20, cumulative = -9.24969e-20
ExecutionTime = 1.38 s  ClockTime = 2 s

Time = 0.01625

Courant Number mean: 0.054546 max: 0.136844
smoothSolver:  Solving for Ux, Initial residual = 0.00424629, Final residual = 3.80249e-06, No Iterations 1
smoothSolver:  Solving for Uy, Initial residual = 0.00288549, Final residual = 8.82283e-06, No Iterations 1
DICPCG:  Solving for p, Initial residual = 0.00409891, Final residual = 0.000173515, No Iterations 112
time step continuity errors : sum local = 4.08632e-12, global = 4.59294e-20, cumulative = -4.65675e-20
DICPCG:  Solving for p, Initial residual = 0.000349856, Final residual = 8.52635e-07, No Iterations 122
time step continuity errors : sum local = 1.98883e-14, global = 1.27458e-21, cumulative = -4.52929e-20
ExecutionTime = 1.4 s  ClockTime = 2 s

Time = 0.0165

Courant Number mean: 0.054546 max: 0.136844
smoothSolver:  Solving for Ux, Initial residual = 0.00415956, Final residual = 3.72154e-06, No Iterations 1
smoothSolver:  Solving for Uy, Initial residual = 0.00282719, Final residual = 8.65177e-06, No Iterations 1
DICPCG:  Solving for p, Initial residual = 0.0048182, Final residual = 0.000211887, No Iterations 115
time step continuity errors : sum local = 4.94731e-12, global = -3.19053e-20, cumulative = -7.71982e-20
DICPCG:  Solving for p, Initial residual = 0.000424949, Final residual = 8.83735e-07, No Iterations 122
time step continuity errors : sum local = 2.01408e-14, global = 2.40809e-20, cumulative = -5.31173e-20
ExecutionTime = 1.41 s  ClockTime = 3 s

Time = 0.01675

Courant Number mean: 0.054546 max: 0.136844
smoothSolver:  Solving for Ux, Initial residual = 0.00404534, Final residual = 3.61601e-06, No Iterations 1
smoothSolver:  Solving for Uy, Initial residual = 0.00274022, Final residual = 8.41406e-06, No Iterations 1
DICPCG:  Solving for p, Initial residual = 0.00416629, Final residual = 0.000183194, No Iterations 113
time step continuity errors : sum local = 4.20226e-12, global = 8.9948e-20, cumulative = 3.68307e-20
DICPCG:  Solving for p, Initial residual = 0.000343739, Final residual = 9.92815e-07, No Iterations 52
time step continuity errors : sum local = 2.69555e-14, global = 2.21994e-20, cumulative = 5.90301e-20
ExecutionTime = 1.43 s  ClockTime = 3 s

Time = 0.017

Courant Number mean: 0.054546 max: 0.136844
smoothSolver:  Solving for Ux, Initial residual = 0.00400267, Final residual = 3.57497e-06, No Iterations 1
smoothSolver:  Solving for Uy, Initial residual = 0.00272142, Final residual = 8.34269e-06, No Iterations 1
DICPCG:  Solving for p, Initial residual = 0.00381761, Final residual = 0.000163764, No Iterations 113
time step continuity errors : sum local = 3.8055e-12, global = 1.05286e-20, cumulative = 6.95587e-20
DICPCG:  Solving for p, Initial residual = 0.000325817, Final residual = 9.74255e-07, No Iterations 54
time step continuity errors : sum local = 2.53888e-14, global = 3.75363e-20, cumulative = 1.07095e-19
ExecutionTime = 1.46 s  ClockTime = 3 s

Time = 0.01725

Courant Number mean: 0.054546 max: 0.136844
smoothSolver:  Solving for Ux, Initial residual = 0.00395837, Final residual = 3.53248e-06, No Iterations 1
smoothSolver:  Solving for Uy, Initial residual = 0.0026995, Final residual = 8.25868e-06, No Iterations 1
DICPCG:  Solving for p, Initial residual = 0.00428727, Final residual = 0.000206241, No Iterations 108
time step continuity errors : sum local = 4.81248e-12, global = -4.90553e-20, cumulative = 5.80396e-20
DICPCG:  Solving for p, Initial residual = 0.00037652, Final residual = 9.88509e-07, No Iterations 79
time step continuity errors : sum local = 2.36114e-14, global = 8.21468e-20, cumulative = 1.40186e-19
ExecutionTime = 1.47 s  ClockTime = 3 s

Time = 0.0175

Courant Number mean: 0.054546 max: 0.136844
smoothSolver:  Solving for Ux, Initial residual = 0.003895, Final residual = 3.47324e-06, No Iterations 1
smoothSolver:  Solving for Uy, Initial residual = 0.00265792, Final residual = 8.13889e-06, No Iterations 1
DICPCG:  Solving for p, Initial residual = 0.00546798, Final residual = 0.00020331, No Iterations 116
time step continuity errors : sum local = 4.7265e-12, global = -3.70363e-20, cumulative = 1.0315e-19
DICPCG:  Solving for p, Initial residual = 0.00040581, Final residual = 8.8665e-07, No Iterations 78
time step continuity errors : sum local = 2.15933e-14, global = -7.35776e-20, cumulative = 2.95725e-20
ExecutionTime = 1.49 s  ClockTime = 3 s

Time = 0.01775

Courant Number mean: 0.054546 max: 0.136844
smoothSolver:  Solving for Ux, Initial residual = 0.00379763, Final residual = 3.38351e-06, No Iterations 1
smoothSolver:  Solving for Uy, Initial residual = 0.00258309, Final residual = 7.94024e-06, No Iterations 1
DICPCG:  Solving for p, Initial residual = 0.0054223, Final residual = 0.000218284, No Iterations 115
time step continuity errors : sum local = 4.99133e-12, global = -4.58274e-20, cumulative = -1.62549e-20
DICPCG:  Solving for p, Initial residual = 0.00042133, Final residual = 9.10643e-07, No Iterations 118
time step continuity errors : sum local = 2.0602e-14, global = 5.43285e-20, cumulative = 3.80736e-20
ExecutionTime = 1.51 s  ClockTime = 3 s

Time = 0.018

Courant Number mean: 0.0545459 max: 0.136843
smoothSolver:  Solving for Ux, Initial residual = 0.00371324, Final residual = 3.3056e-06, No Iterations 1
smoothSolver:  Solving for Uy, Initial residual = 0.00251863, Final residual = 7.76786e-06, No Iterations 1
DICPCG:  Solving for p, Initial residual = 0.00419167, Final residual = 0.000205655, No Iterations 55
time step continuity errors : sum local = 5.86091e-12, global = -5.2785e-20, cumulative = -1.47113e-20
DICPCG:  Solving for p, Initial residual = 0.000383434, Final residual = 8.16791e-07, No Iterations 120
time step continuity errors : sum local = 1.8466e-14, global = -6.46385e-20, cumulative = -7.93498e-20
ExecutionTime = 1.52 s  ClockTime = 3 s

Time = 0.01825

Courant Number mean: 0.0545459 max: 0.136843
smoothSolver:  Solving for Ux, Initial residual = 0.00366734, Final residual = 3.26203e-06, No Iterations 1
smoothSolver:  Solving for Uy, Initial residual = 0.00248923, Final residual = 7.6752e-06, No Iterations 1
DICPCG:  Solving for p, Initial residual = 0.00437409, Final residual = 0.000204254, No Iterations 108
time step continuity errors : sum local = 4.64437e-12, global = 2.3749e-21, cumulative = -7.69749e-20
DICPCG:  Solving for p, Initial residual = 0.000393812, Final residual = 7.94534e-07, No Iterations 122
time step continuity errors : sum local = 1.80713e-14, global = -2.53736e-20, cumulative = -1.02348e-19
ExecutionTime = 1.55 s  ClockTime = 3 s

Time = 0.0185

Courant Number mean: 0.0545459 max: 0.136842
smoothSolver:  Solving for Ux, Initial residual = 0.0036247, Final residual = 3.22132e-06, No Iterations 1
smoothSolver:  Solving for Uy, Initial residual = 0.00246275, Final residual = 7.59787e-06, No Iterations 1
DICPCG:  Solving for p, Initial residual = 0.00475377, Final residual = 0.000184766, No Iterations 113
time step continuity errors : sum local = 4.20933e-12, global = -3.15844e-20, cumulative = -1.33933e-19
DICPCG:  Solving for p, Initial residual = 0.000371929, Final residual = 9.138e-07, No Iterations 120
time step continuity errors : sum local = 2.08869e-14, global = 1.26729e-19, cumulative = -7.20337e-21
ExecutionTime = 1.57 s  ClockTime = 3 s

Time = 0.01875

Courant Number mean: 0.0545459 max: 0.136842
smoothSolver:  Solving for Ux, Initial residual = 0.00359231, Final residual = 3.18972e-06, No Iterations 1
smoothSolver:  Solving for Uy, Initial residual = 0.0024489, Final residual = 7.54465e-06, No Iterations 1
DICPCG:  Solving for p, Initial residual = 0.00570454, Final residual = 0.000282267, No Iterations 52
time step continuity errors : sum local = 7.71734e-12, global = -1.14104e-19, cumulative = -1.21307e-19
DICPCG:  Solving for p, Initial residual = 0.000496179, Final residual = 7.8586e-07, No Iterations 122
time step continuity errors : sum local = 1.7986e-14, global = 1.89903e-20, cumulative = -1.02317e-19
ExecutionTime = 1.58 s  ClockTime = 3 s

Time = 0.019

Courant Number mean: 0.0545459 max: 0.136842
smoothSolver:  Solving for Ux, Initial residual = 0.00354987, Final residual = 3.1492e-06, No Iterations 1
smoothSolver:  Solving for Uy, Initial residual = 0.00242807, Final residual = 7.47259e-06, No Iterations 1
DICPCG:  Solving for p, Initial residual = 0.00435279, Final residual = 0.000198308, No Iterations 53
time step continuity errors : sum local = 5.54718e-12, global = 1.02657e-20, cumulative = -9.20514e-20
DICPCG:  Solving for p, Initial residual = 0.000386994, Final residual = 9.97532e-07, No Iterations 120
time step continuity errors : sum local = 2.2955e-14, global = -6.45359e-20, cumulative = -1.56587e-19
ExecutionTime = 1.6 s  ClockTime = 3 s

Time = 0.01925

Courant Number mean: 0.0545459 max: 0.136842
smoothSolver:  Solving for Ux, Initial residual = 0.00350722, Final residual = 3.10849e-06, No Iterations 1
smoothSolver:  Solving for Uy, Initial residual = 0.00240497, Final residual = 7.40248e-06, No Iterations 1
DICPCG:  Solving for p, Initial residual = 0.00440666, Final residual = 0.000207586, No Iterations 109
time step continuity errors : sum local = 4.8064e-12, global = -3.57761e-20, cumulative = -1.92363e-19
DICPCG:  Solving for p, Initial residual = 0.000393229, Final residual = 8.90834e-07, No Iterations 119
time step continuity errors : sum local = 2.08211e-14, global = -4.89999e-20, cumulative = -2.41363e-19
ExecutionTime = 1.61 s  ClockTime = 3 s

Time = 0.0195

Courant Number mean: 0.0545459 max: 0.136842
smoothSolver:  Solving for Ux, Initial residual = 0.00346786, Final residual = 3.07089e-06, No Iterations 1
smoothSolver:  Solving for Uy, Initial residual = 0.00238571, Final residual = 7.34668e-06, No Iterations 1
DICPCG:  Solving for p, Initial residual = 0.00444317, Final residual = 0.000217906, No Iterations 109
time step continuity errors : sum local = 5.07022e-12, global = -7.62838e-20, cumulative = -3.17647e-19
DICPCG:  Solving for p, Initial residual = 0.000404814, Final residual = 7.12866e-07, No Iterations 122
time step continuity errors : sum local = 1.66478e-14, global = 7.06249e-20, cumulative = -2.47022e-19
ExecutionTime = 1.65 s  ClockTime = 3 s

Time = 0.01975

Courant Number mean: 0.0545459 max: 0.136842
smoothSolver:  Solving for Ux, Initial residual = 0.00343092, Final residual = 3.03568e-06, No Iterations 1
smoothSolver:  Solving for Uy, Initial residual = 0.00237069, Final residual = 7.2953e-06, No Iterations 1
DICPCG:  Solving for p, Initial residual = 0.00447052, Final residual = 0.000176325, No Iterations 110
time step continuity errors : sum local = 4.12697e-12, global = 7.685e-20, cumulative = -1.70172e-19
DICPCG:  Solving for p, Initial residual = 0.000367061, Final residual = 8.77878e-07, No Iterations 121
time step continuity errors : sum local = 2.06718e-14, global = -6.136e-20, cumulative = -2.31532e-19
ExecutionTime = 1.66 s  ClockTime = 3 s

Time = 0.02

Courant Number mean: 0.0545459 max: 0.136841
smoothSolver:  Solving for Ux, Initial residual = 0.00339607, Final residual = 3.00241e-06, No Iterations 1
smoothSolver:  Solving for Uy, Initial residual = 0.00235665, Final residual = 7.24618e-06, No Iterations 1
DICPCG:  Solving for p, Initial residual = 0.00448306, Final residual = 0.000182975, No Iterations 110
time step continuity errors : sum local = 4.31207e-12, global = -3.75567e-20, cumulative = -2.69089e-19
DICPCG:  Solving for p, Initial residual = 0.000373296, Final residual = 9.07133e-07, No Iterations 121
time step continuity errors : sum local = 2.15026e-14, global = -3.84741e-20, cumulative = -3.07563e-19
ExecutionTime = 1.69 s  ClockTime = 3 s

Time = 0.02025

Courant Number mean: 0.0545459 max: 0.136841
smoothSolver:  Solving for Ux, Initial residual = 0.00336294, Final residual = 2.97062e-06, No Iterations 1
smoothSolver:  Solving for Uy, Initial residual = 0.00234313, Final residual = 7.19774e-06, No Iterations 1
DICPCG:  Solving for p, Initial residual = 0.00445033, Final residual = 0.00018428, No Iterations 110
time step continuity errors : sum local = 4.37436e-12, global = 9.04539e-20, cumulative = -2.17109e-19
DICPCG:  Solving for p, Initial residual = 0.000376492, Final residual = 8.53102e-07, No Iterations 121
time step continuity errors : sum local = 2.03443e-14, global = 1.36641e-20, cumulative = -2.03445e-19
ExecutionTime = 1.71 s  ClockTime = 3 s

Time = 0.0205

Courant Number mean: 0.0545459 max: 0.136841
smoothSolver:  Solving for Ux, Initial residual = 0.00333122, Final residual = 2.94043e-06, No Iterations 1
smoothSolver:  Solving for Uy, Initial residual = 0.00233007, Final residual = 7.14938e-06, No Iterations 1
DICPCG:  Solving for p, Initial residual = 0.00458016, Final residual = 0.000184014, No Iterations 110
time step continuity errors : sum local = 4.40083e-12, global = -6.89643e-20, cumulative = -2.72409e-19
DICPCG:  Solving for p, Initial residual = 0.000379935, Final residual = 8.15078e-07, No Iterations 115
time step continuity errors : sum local = 1.9656e-14, global = -3.41807e-21, cumulative = -2.75827e-19
ExecutionTime = 1.72 s  ClockTime = 3 s

Time = 0.02075

Courant Number mean: 0.0545459 max: 0.136841
smoothSolver:  Solving for Ux, Initial residual = 0.00330071, Final residual = 2.91131e-06, No Iterations 1
smoothSolver:  Solving for Uy, Initial residual = 0.00231678, Final residual = 7.10315e-06, No Iterations 1
DICPCG:  Solving for p, Initial residual = 0.00445663, Final residual = 0.000185061, No Iterations 110
time step continuity errors : sum local = 4.46035e-12, global = 3.4655e-20, cumulative = -2.41172e-19
DICPCG:  Solving for p, Initial residual = 0.000375934, Final residual = 7.64776e-07, No Iterations 115
time step continuity errors : sum local = 1.85308e-14, global = 5.92099e-20, cumulative = -1.81963e-19
ExecutionTime = 1.76 s  ClockTime = 3 s

Time = 0.021

Courant Number mean: 0.0545459 max: 0.136841
smoothSolver:  Solving for Ux, Initial residual = 0.00327122, Final residual = 2.88297e-06, No Iterations 1
smoothSolver:  Solving for Uy, Initial residual = 0.00230386, Final residual = 7.05482e-06, No Iterations 1
DICPCG:  Solving for p, Initial residual = 0.00441482, Final residual = 0.000181988, No Iterations 110
time step continuity errors : sum local = 4.42182e-12, global = 1.37303e-19, cumulative = -4.46595e-20
DICPCG:  Solving for p, Initial residual = 0.000369878, Final residual = 9.27344e-07, No Iterations 120
time step continuity errors : sum local = 2.27226e-14, global = -7.21525e-20, cumulative = -1.16812e-19
ExecutionTime = 1.77 s  ClockTime = 3 s

Time = 0.02125

Courant Number mean: 0.0545459 max: 0.136841
smoothSolver:  Solving for Ux, Initial residual = 0.00324257, Final residual = 2.85529e-06, No Iterations 1
smoothSolver:  Solving for Uy, Initial residual = 0.00229021, Final residual = 7.00595e-06, No Iterations 1
DICPCG:  Solving for p, Initial residual = 0.0044007, Final residual = 0.000176014, No Iterations 110
time step continuity errors : sum local = 4.31171e-12, global = -1.19649e-20, cumulative = -1.28777e-19
DICPCG:  Solving for p, Initial residual = 0.000362007, Final residual = 8.8792e-07, No Iterations 121
time step continuity errors : sum local = 2.18456e-14, global = 8.80175e-20, cumulative = -4.07594e-20
ExecutionTime = 1.79 s  ClockTime = 3 s

Time = 0.0215

Courant Number mean: 0.0545459 max: 0.136841
smoothSolver:  Solving for Ux, Initial residual = 0.00321459, Final residual = 2.82816e-06, No Iterations 1
smoothSolver:  Solving for Uy, Initial residual = 0.0022763, Final residual = 6.96006e-06, No Iterations 1
DICPCG:  Solving for p, Initial residual = 0.00439292, Final residual = 0.000168544, No Iterations 110
time step continuity errors : sum local = 4.16291e-12, global = -6.38919e-20, cumulative = -1.04651e-19
DICPCG:  Solving for p, Initial residual = 0.000352949, Final residual = 8.78616e-07, No Iterations 121
time step continuity errors : sum local = 2.18063e-14, global = 1.45628e-20, cumulative = -9.00884e-20
ExecutionTime = 1.8 s  ClockTime = 3 s

Time = 0.02175

Courant Number mean: 0.0545459 max: 0.136841
smoothSolver:  Solving for Ux, Initial residual = 0.00318714, Final residual = 2.80157e-06, No Iterations 1
smoothSolver:  Solving for Uy, Initial residual = 0.00226281, Final residual = 6.9135e-06, No Iterations 1
DICPCG:  Solving for p, Initial residual = 0.00438236, Final residual = 0.000162214, No Iterations 110
time step continuity errors : sum local = 4.04044e-12, global = 3.86091e-20, cumulative = -5.14793e-20
DICPCG:  Solving for p, Initial residual = 0.000345512, Final residual = 9.60525e-07, No Iterations 119
time step continuity errors : sum local = 2.39809e-14, global = -2.74167e-20, cumulative = -7.8896e-20
ExecutionTime = 1.83 s  ClockTime = 3 s

Time = 0.022

Courant Number mean: 0.0545459 max: 0.136841
smoothSolver:  Solving for Ux, Initial residual = 0.00316021, Final residual = 2.77567e-06, No Iterations 1
smoothSolver:  Solving for Uy, Initial residual = 0.0022491, Final residual = 6.86638e-06, No Iterations 1
DICPCG:  Solving for p, Initial residual = 0.00439123, Final residual = 0.00017155, No Iterations 110
time step continuity errors : sum local = 4.31453e-12, global = 3.98364e-20, cumulative = -3.90596e-20
DICPCG:  Solving for p, Initial residual = 0.000353266, Final residual = 7.74277e-07, No Iterations 122
time step continuity errors : sum local = 1.94811e-14, global = 1.40984e-20, cumulative = -2.49613e-20
ExecutionTime = 1.84 s  ClockTime = 3 s

Time = 0.02225

Courant Number mean: 0.0545459 max: 0.136841
smoothSolver:  Solving for Ux, Initial residual = 0.003134, Final residual = 2.75042e-06, No Iterations 1
smoothSolver:  Solving for Uy, Initial residual = 0.00223645, Final residual = 6.81957e-06, No Iterations 1
DICPCG:  Solving for p, Initial residual = 0.00477298, Final residual = 0.000222113, No Iterations 111
time step continuity errors : sum local = 5.65612e-12, global = -3.03976e-20, cumulative = -5.53589e-20
DICPCG:  Solving for p, Initial residual = 0.000409769, Final residual = 8.69439e-07, No Iterations 121
time step continuity errors : sum local = 2.20819e-14, global = 6.07558e-20, cumulative = 5.39687e-21
ExecutionTime = 1.86 s  ClockTime = 3 s

Time = 0.0225

Courant Number mean: 0.0545459 max: 0.136841
smoothSolver:  Solving for Ux, Initial residual = 0.00310994, Final residual = 2.72722e-06, No Iterations 1
smoothSolver:  Solving for Uy, Initial residual = 0.00222585, Final residual = 6.77214e-06, No Iterations 1
DICPCG:  Solving for p, Initial residual = 0.00447697, Final residual = 0.000208785, No Iterations 52
time step continuity errors : sum local = 6.08248e-12, global = -5.46844e-23, cumulative = 5.34219e-21
DICPCG:  Solving for p, Initial residual = 0.000384944, Final residual = 9.04754e-07, No Iterations 120
time step continuity errors : sum local = 2.30103e-14, global = -1.6688e-19, cumulative = -1.61538e-19
ExecutionTime = 1.88 s  ClockTime = 3 s

Time = 0.02275

Courant Number mean: 0.0545459 max: 0.136841
smoothSolver:  Solving for Ux, Initial residual = 0.00307847, Final residual = 2.69741e-06, No Iterations 1
smoothSolver:  Solving for Uy, Initial residual = 0.00220784, Final residual = 6.71441e-06, No Iterations 1
DICPCG:  Solving for p, Initial residual = 0.00456297, Final residual = 0.000199104, No Iterations 109
time step continuity errors : sum local = 5.08585e-12, global = 4.65143e-20, cumulative = -1.15024e-19
DICPCG:  Solving for p, Initial residual = 0.000385002, Final residual = 9.01984e-07, No Iterations 120
time step continuity errors : sum local = 2.31367e-14, global = -1.38292e-20, cumulative = -1.28853e-19
ExecutionTime = 1.91 s  ClockTime = 3 s

Time = 0.023

Courant Number mean: 0.0545459 max: 0.136841
smoothSolver:  Solving for Ux, Initial residual = 0.00305126, Final residual = 2.6714e-06, No Iterations 1
smoothSolver:  Solving for Uy, Initial residual = 0.0021928, Final residual = 6.67053e-06, No Iterations 1
DICPCG:  Solving for p, Initial residual = 0.00413625, Final residual = 0.0001724, No Iterations 110
time step continuity errors : sum local = 4.44009e-12, global = -5.61102e-20, cumulative = -1.84963e-19
DICPCG:  Solving for p, Initial residual = 0.000347291, Final residual = 8.7418e-07, No Iterations 118
time step continuity errors : sum local = 2.25143e-14, global = 6.00669e-20, cumulative = -1.24896e-19
ExecutionTime = 1.92 s  ClockTime = 3 s

Time = 0.02325

Courant Number mean: 0.0545459 max: 0.136841
smoothSolver:  Solving for Ux, Initial residual = 0.00302548, Final residual = 2.64659e-06, No Iterations 1
smoothSolver:  Solving for Uy, Initial residual = 0.00218069, Final residual = 6.62695e-06, No Iterations 1
DICPCG:  Solving for p, Initial residual = 0.0041369, Final residual = 0.000153465, No Iterations 111
time step continuity errors : sum local = 3.99233e-12, global = -2.08885e-20, cumulative = -1.45785e-19
DICPCG:  Solving for p, Initial residual = 0.000327326, Final residual = 7.25086e-07, No Iterations 120
time step continuity errors : sum local = 1.87672e-14, global = 5.23405e-20, cumulative = -9.34444e-20
ExecutionTime = 1.94 s  ClockTime = 3 s

Time = 0.0235

Courant Number mean: 0.0545459 max: 0.136841
smoothSolver:  Solving for Ux, Initial residual = 0.00300062, Final residual = 2.62263e-06, No Iterations 1
smoothSolver:  Solving for Uy, Initial residual = 0.00216884, Final residual = 6.58564e-06, No Iterations 1
DICPCG:  Solving for p, Initial residual = 0.00413862, Final residual = 0.00019687, No Iterations 111
time step continuity errors : sum local = 5.15758e-12, global = -9.31041e-20, cumulative = -1.86549e-19
DICPCG:  Solving for p, Initial residual = 0.000367303, Final residual = 8.62109e-07, No Iterations 120
time step continuity errors : sum local = 2.24397e-14, global = -9.8226e-20, cumulative = -2.84775e-19
ExecutionTime = 1.97 s  ClockTime = 3 s

Time = 0.02375

Courant Number mean: 0.0545459 max: 0.136841
smoothSolver:  Solving for Ux, Initial residual = 0.00297734, Final residual = 2.60013e-06, No Iterations 1
smoothSolver:  Solving for Uy, Initial residual = 0.00215823, Final residual = 6.54652e-06, No Iterations 1
DICPCG:  Solving for p, Initial residual = 0.00427095, Final residual = 0.000169457, No Iterations 113
time step continuity errors : sum local = 4.45636e-12, global = 1.03221e-20, cumulative = -2.74453e-19
DICPCG:  Solving for p, Initial residual = 0.000348037, Final residual = 8.9022e-07, No Iterations 73
time step continuity errors : sum local = 2.68067e-14, global = -2.6835e-20, cumulative = -3.01288e-19
ExecutionTime = 1.98 s  ClockTime = 3 s

Time = 0.024

Courant Number mean: 0.0545459 max: 0.136841
smoothSolver:  Solving for Ux, Initial residual = 0.00295758, Final residual = 2.58079e-06, No Iterations 1
smoothSolver:  Solving for Uy, Initial residual = 0.00215067, Final residual = 6.51479e-06, No Iterations 1
DICPCG:  Solving for p, Initial residual = 0.00456944, Final residual = 0.000208948, No Iterations 115
time step continuity errors : sum local = 5.52715e-12, global = 7.20814e-20, cumulative = -2.29206e-19
DICPCG:  Solving for p, Initial residual = 0.000390229, Final residual = 8.62766e-07, No Iterations 120
time step continuity errors : sum local = 2.3027e-14, global = -6.35628e-20, cumulative = -2.92769e-19
ExecutionTime = 2 s  ClockTime = 3 s

Time = 0.02425

Courant Number mean: 0.0545459 max: 0.136841
smoothSolver:  Solving for Ux, Initial residual = 0.00294975, Final residual = 2.57218e-06, No Iterations 1
smoothSolver:  Solving for Uy, Initial residual = 0.00215441, Final residual = 6.50117e-06, No Iterations 1
DICPCG:  Solving for p, Initial residual = 0.00469468, Final residual = 0.000229703, No Iterations 114
time step continuity errors : sum local = 6.15638e-12, global = 6.57077e-20, cumulative = -2.27061e-19
DICPCG:  Solving for p, Initial residual = 0.000413406, Final residual = 8.95377e-07, No Iterations 121
time step continuity errors : sum local = 2.36087e-14, global = 2.79993e-20, cumulative = -1.99062e-19
ExecutionTime = 2.01 s  ClockTime = 3 s

Time = 0.0245

Courant Number mean: 0.0545459 max: 0.136841
smoothSolver:  Solving for Ux, Initial residual = 0.0029018, Final residual = 2.52795e-06, No Iterations 1
smoothSolver:  Solving for Uy, Initial residual = 0.00212056, Final residual = 6.41102e-06, No Iterations 1
DICPCG:  Solving for p, Initial residual = 0.00513252, Final residual = 0.000220996, No Iterations 116
time step continuity errors : sum local = 5.86235e-12, global = -1.26057e-20, cumulative = -2.11668e-19
DICPCG:  Solving for p, Initial residual = 0.000430944, Final residual = 8.70413e-07, No Iterations 102
time step continuity errors : sum local = 2.30376e-14, global = 1.58961e-20, cumulative = -1.95772e-19
ExecutionTime = 2.05 s  ClockTime = 3 s

Time = 0.02475

Courant Number mean: 0.0545459 max: 0.136841
smoothSolver:  Solving for Ux, Initial residual = 0.00284193, Final residual = 2.47312e-06, No Iterations 1
smoothSolver:  Solving for Uy, Initial residual = 0.00207391, Final residual = 6.2947e-06, No Iterations 1
DICPCG:  Solving for p, Initial residual = 0.00543144, Final residual = 0.000208462, No Iterations 115
time step continuity errors : sum local = 5.42244e-12, global = -6.68135e-20, cumulative = -2.62585e-19
DICPCG:  Solving for p, Initial residual = 0.0004257, Final residual = 9.46571e-07, No Iterations 122
time step continuity errors : sum local = 2.42883e-14, global = 4.31238e-20, cumulative = -2.19461e-19
ExecutionTime = 2.07 s  ClockTime = 3 s

Time = 0.025

Courant Number mean: 0.0545459 max: 0.136841
smoothSolver:  Solving for Ux, Initial residual = 0.00278657, Final residual = 2.42252e-06, No Iterations 1
smoothSolver:  Solving for Uy, Initial residual = 0.00202933, Final residual = 6.17096e-06, No Iterations 1
DICPCG:  Solving for p, Initial residual = 0.00523153, Final residual = 0.000249971, No Iterations 110
time step continuity errors : sum local = 6.45373e-12, global = -5.4723e-20, cumulative = -2.74184e-19
DICPCG:  Solving for p, Initial residual = 0.000456128, Final residual = 8.7796e-07, No Iterations 123
time step continuity errors : sum local = 2.23503e-14, global = 3.12509e-20, cumulative = -2.42933e-19
ExecutionTime = 2.08 s  ClockTime = 3 s

Time = 0.02525

Courant Number mean: 0.0545459 max: 0.136842
smoothSolver:  Solving for Ux, Initial residual = 0.00274583, Final residual = 2.38488e-06, No Iterations 1
smoothSolver:  Solving for Uy, Initial residual = 0.00199737, Final residual = 6.08119e-06, No Iterations 1
DICPCG:  Solving for p, Initial residual = 0.0068949, Final residual = 0.000320392, No Iterations 114
time step continuity errors : sum local = 8.18779e-12, global = 1.05116e-20, cumulative = -2.32422e-19
DICPCG:  Solving for p, Initial residual = 0.000556478, Final residual = 7.61728e-07, No Iterations 123
time step continuity errors : sum local = 1.90407e-14, global = -5.59853e-20, cumulative = -2.88407e-19
ExecutionTime = 2.11 s  ClockTime = 3 s

Time = 0.0255

Courant Number mean: 0.0545459 max: 0.136842
smoothSolver:  Solving for Ux, Initial residual = 0.00268711, Final residual = 2.33141e-06, No Iterations 1
smoothSolver:  Solving for Uy, Initial residual = 0.00194978, Final residual = 5.95512e-06, No Iterations 1
DICPCG:  Solving for p, Initial residual = 0.00579878, Final residual = 0.000269848, No Iterations 113
time step continuity errors : sum local = 6.80175e-12, global = -8.46987e-20, cumulative = -3.73106e-19
DICPCG:  Solving for p, Initial residual = 0.00049654, Final residual = 7.84952e-07, No Iterations 113
time step continuity errors : sum local = 1.95953e-14, global = 3.14014e-20, cumulative = -3.41704e-19
ExecutionTime = 2.13 s  ClockTime = 3 s

Time = 0.02575

Courant Number mean: 0.0545459 max: 0.136842
smoothSolver:  Solving for Ux, Initial residual = 0.00264036, Final residual = 2.28852e-06, No Iterations 1
smoothSolver:  Solving for Uy, Initial residual = 0.00191275, Final residual = 5.85243e-06, No Iterations 1
DICPCG:  Solving for p, Initial residual = 0.00651423, Final residual = 0.000274105, No Iterations 109
time step continuity errors : sum local = 6.84687e-12, global = 1.41611e-20, cumulative = -3.27543e-19
DICPCG:  Solving for p, Initial residual = 0.000517244, Final residual = 9.32756e-07, No Iterations 121
time step continuity errors : sum local = 2.31306e-14, global = -3.66681e-20, cumulative = -3.64211e-19
ExecutionTime = 2.14 s  ClockTime = 3 s

Time = 0.026

Courant Number mean: 0.0545459 max: 0.136842
smoothSolver:  Solving for Ux, Initial residual = 0.00260599, Final residual = 2.25647e-06, No Iterations 1
smoothSolver:  Solving for Uy, Initial residual = 0.00188696, Final residual = 5.7783e-06, No Iterations 1
DICPCG:  Solving for p, Initial residual = 0.00506941, Final residual = 0.000233073, No Iterations 54
time step continuity errors : sum local = 7.12018e-12, global = -4.67369e-20, cumulative = -4.10948e-19
DICPCG:  Solving for p, Initial residual = 0.000434116, Final residual = 9.31821e-07, No Iterations 120
time step continuity errors : sum local = 2.3034e-14, global = 2.81899e-20, cumulative = -3.82758e-19
ExecutionTime = 2.16 s  ClockTime = 3 s

Time = 0.02625

Courant Number mean: 0.0545459 max: 0.136842
smoothSolver:  Solving for Ux, Initial residual = 0.00258529, Final residual = 2.23648e-06, No Iterations 1
smoothSolver:  Solving for Uy, Initial residual = 0.0018728, Final residual = 5.73425e-06, No Iterations 1
DICPCG:  Solving for p, Initial residual = 0.00610496, Final residual = 0.000285031, No Iterations 115
time step continuity errors : sum local = 7.09415e-12, global = 3.85162e-20, cumulative = -3.44242e-19
DICPCG:  Solving for p, Initial residual = 0.000499057, Final residual = 9.89454e-07, No Iterations 122
time step continuity errors : sum local = 2.4998e-14, global = 5.88106e-20, cumulative = -2.85432e-19
ExecutionTime = 2.19 s  ClockTime = 3 s

Time = 0.0265

Courant Number mean: 0.0545459 max: 0.136842
smoothSolver:  Solving for Ux, Initial residual = 0.00259007, Final residual = 2.23891e-06, No Iterations 1
smoothSolver:  Solving for Uy, Initial residual = 0.00188373, Final residual = 5.74608e-06, No Iterations 1
DICPCG:  Solving for p, Initial residual = 0.00730402, Final residual = 0.000310739, No Iterations 116
time step continuity errors : sum local = 7.87668e-12, global = 6.80377e-21, cumulative = -2.78628e-19
DICPCG:  Solving for p, Initial residual = 0.000595516, Final residual = 8.94954e-07, No Iterations 122
time step continuity errors : sum local = 2.20451e-14, global = -1.57168e-20, cumulative = -2.94345e-19
ExecutionTime = 2.21 s  ClockTime = 3 s

Time = 0.02675

Courant Number mean: 0.0545459 max: 0.136842
smoothSolver:  Solving for Ux, Initial residual = 0.00251679, Final residual = 2.17317e-06, No Iterations 1
smoothSolver:  Solving for Uy, Initial residual = 0.00182324, Final residual = 5.59323e-06, No Iterations 1
DICPCG:  Solving for p, Initial residual = 0.0069722, Final residual = 0.000348595, No Iterations 115
time step continuity errors : sum local = 8.61471e-12, global = 1.55066e-19, cumulative = -1.39278e-19
DICPCG:  Solving for p, Initial residual = 0.000618084, Final residual = 9.09056e-07, No Iterations 123
time step continuity errors : sum local = 2.19697e-14, global = -2.30358e-20, cumulative = -1.62314e-19
ExecutionTime = 2.22 s  ClockTime = 3 s

Time = 0.027

Courant Number mean: 0.0545459 max: 0.136842
smoothSolver:  Solving for Ux, Initial residual = 0.00246234, Final residual = 2.124e-06, No Iterations 1
smoothSolver:  Solving for Uy, Initial residual = 0.00178163, Final residual = 5.4913e-06, No Iterations 1
DICPCG:  Solving for p, Initial residual = 0.00617354, Final residual = 0.000278195, No Iterations 114
time step continuity errors : sum local = 6.76777e-12, global = -3.85699e-21, cumulative = -1.66171e-19
DICPCG:  Solving for p, Initial residual = 0.000491305, Final residual = 9.64307e-07, No Iterations 123
time step continuity errors : sum local = 2.35232e-14, global = -1.19184e-20, cumulative = -1.78089e-19
ExecutionTime = 2.25 s  ClockTime = 3 s

Time = 0.02725

Courant Number mean: 0.0545459 max: 0.136842
[...]
DICPCG:  Solving for p, Initial residual = 0.000256139, Final residual = 9.73454e-07, No Iterations 120
time step continuity errors : sum local = 8.29616e-14, global = 6.51852e-20, cumulative = 4.75684e-18
ExecutionTime = 31.81 s  ClockTime = 34 s

Time = 0.4935

Courant Number mean: 0.0545353 max: 0.136872
smoothSolver:  Solving for Ux, Initial residual = 0.000100765, Final residual = 3.86066e-08, No Iterations 1
smoothSolver:  Solving for Uy, Initial residual = 0.000259567, Final residual = 2.35936e-07, No Iterations 1
DICPCG:  Solving for p, Initial residual = 0.00366208, Final residual = 0.000160339, No Iterations 5
time step continuity errors : sum local = 1.37158e-11, global = 1.08039e-19, cumulative = 4.86488e-18
DICPCG:  Solving for p, Initial residual = 0.000257169, Final residual = 9.49499e-07, No Iterations 72
time step continuity errors : sum local = 8.52712e-14, global = -2.45346e-21, cumulative = 4.86243e-18
ExecutionTime = 31.83 s  ClockTime = 34 s

Time = 0.49375

Courant Number mean: 0.0545353 max: 0.136872
smoothSolver:  Solving for Ux, Initial residual = 0.000100693, Final residual = 3.85733e-08, No Iterations 1
smoothSolver:  Solving for Uy, Initial residual = 0.000259514, Final residual = 2.35812e-07, No Iterations 1
DICPCG:  Solving for p, Initial residual = 0.00350333, Final residual = 0.000172909, No Iterations 5
time step continuity errors : sum local = 1.48162e-11, global = 7.12064e-20, cumulative = 4.93364e-18
DICPCG:  Solving for p, Initial residual = 0.000265626, Final residual = 8.19277e-07, No Iterations 121
time step continuity errors : sum local = 6.99778e-14, global = 4.81933e-20, cumulative = 4.98183e-18
ExecutionTime = 31.84 s  ClockTime = 34 s

Time = 0.494

Courant Number mean: 0.0545353 max: 0.136872
smoothSolver:  Solving for Ux, Initial residual = 0.000100633, Final residual = 3.85414e-08, No Iterations 1
smoothSolver:  Solving for Uy, Initial residual = 0.000259539, Final residual = 2.35726e-07, No Iterations 1
DICPCG:  Solving for p, Initial residual = 0.00375252, Final residual = 0.000152988, No Iterations 5
time step continuity errors : sum local = 1.31088e-11, global = 5.11899e-20, cumulative = 5.03302e-18
DICPCG:  Solving for p, Initial residual = 0.000258249, Final residual = 9.43278e-07, No Iterations 121
time step continuity errors : sum local = 8.06489e-14, global = 6.20391e-20, cumulative = 5.09506e-18
ExecutionTime = 31.86 s  ClockTime = 34 s

Time = 0.49425

Courant Number mean: 0.0545352 max: 0.136872
smoothSolver:  Solving for Ux, Initial residual = 0.000100566, Final residual = 3.85096e-08, No Iterations 1
smoothSolver:  Solving for Uy, Initial residual = 0.000259612, Final residual = 2.35683e-07, No Iterations 1
DICPCG:  Solving for p, Initial residual = 0.00364398, Final residual = 0.000169442, No Iterations 5
time step continuity errors : sum local = 1.4525e-11, global = -1.72056e-20, cumulative = 5.07785e-18
DICPCG:  Solving for p, Initial residual = 0.000264726, Final residual = 9.86482e-07, No Iterations 120
time step continuity errors : sum local = 8.43876e-14, global = -8.44497e-20, cumulative = 4.9934e-18
ExecutionTime = 31.86 s  ClockTime = 34 s

Time = 0.4945

Courant Number mean: 0.0545352 max: 0.136872
smoothSolver:  Solving for Ux, Initial residual = 0.000100499, Final residual = 3.84775e-08, No Iterations 1
smoothSolver:  Solving for Uy, Initial residual = 0.000259562, Final residual = 2.35544e-07, No Iterations 1
DICPCG:  Solving for p, Initial residual = 0.00375357, Final residual = 0.000153872, No Iterations 5
time step continuity errors : sum local = 1.32044e-11, global = -7.02096e-20, cumulative = 4.92319e-18
DICPCG:  Solving for p, Initial residual = 0.000255602, Final residual = 8.88475e-07, No Iterations 121
time step continuity errors : sum local = 7.5978e-14, global = 1.39346e-20, cumulative = 4.93713e-18
ExecutionTime = 31.87 s  ClockTime = 34 s

Time = 0.49475

Courant Number mean: 0.0545352 max: 0.136872
smoothSolver:  Solving for Ux, Initial residual = 0.000100431, Final residual = 3.84468e-08, No Iterations 1
smoothSolver:  Solving for Uy, Initial residual = 0.000259501, Final residual = 2.35391e-07, No Iterations 1
DICPCG:  Solving for p, Initial residual = 0.00373283, Final residual = 0.00015661, No Iterations 5
time step continuity errors : sum local = 1.34518e-11, global = -3.72407e-20, cumulative = 4.89989e-18
DICPCG:  Solving for p, Initial residual = 0.000257233, Final residual = 8.91083e-07, No Iterations 121
time step continuity errors : sum local = 7.63556e-14, global = 9.55062e-21, cumulative = 4.90944e-18
ExecutionTime = 31.89 s  ClockTime = 34 s

Time = 0.495

Courant Number mean: 0.0545352 max: 0.136872
smoothSolver:  Solving for Ux, Initial residual = 0.000100363, Final residual = 3.8417e-08, No Iterations 1
smoothSolver:  Solving for Uy, Initial residual = 0.000259484, Final residual = 2.35274e-07, No Iterations 1
DICPCG:  Solving for p, Initial residual = 0.00389857, Final residual = 0.000188394, No Iterations 4
time step continuity errors : sum local = 1.61301e-11, global = -5.79604e-20, cumulative = 4.85148e-18
DICPCG:  Solving for p, Initial residual = 0.00029571, Final residual = 9.45449e-07, No Iterations 122
time step continuity errors : sum local = 8.10665e-14, global = -1.85088e-21, cumulative = 4.84963e-18
ExecutionTime = 31.9 s  ClockTime = 34 s

Time = 0.49525

Courant Number mean: 0.0545352 max: 0.136872
smoothSolver:  Solving for Ux, Initial residual = 0.000100296, Final residual = 3.83872e-08, No Iterations 1
smoothSolver:  Solving for Uy, Initial residual = 0.000259743, Final residual = 2.35346e-07, No Iterations 1
DICPCG:  Solving for p, Initial residual = 0.00376336, Final residual = 0.000146499, No Iterations 5
time step continuity errors : sum local = 1.25948e-11, global = 1.11571e-20, cumulative = 4.86078e-18
DICPCG:  Solving for p, Initial residual = 0.000254699, Final residual = 9.36791e-07, No Iterations 121
time step continuity errors : sum local = 8.02369e-14, global = -2.13774e-20, cumulative = 4.83941e-18
ExecutionTime = 31.92 s  ClockTime = 34 s

Time = 0.4955

Courant Number mean: 0.0545352 max: 0.136872
smoothSolver:  Solving for Ux, Initial residual = 0.000100229, Final residual = 3.83561e-08, No Iterations 1
smoothSolver:  Solving for Uy, Initial residual = 0.000259826, Final residual = 2.35303e-07, No Iterations 1
DICPCG:  Solving for p, Initial residual = 0.00358428, Final residual = 0.000158206, No Iterations 5
time step continuity errors : sum local = 1.36113e-11, global = 3.46107e-20, cumulative = 4.87402e-18
DICPCG:  Solving for p, Initial residual = 0.000256581, Final residual = 8.96339e-07, No Iterations 121
time step continuity errors : sum local = 7.67381e-14, global = -2.2922e-20, cumulative = 4.8511e-18
ExecutionTime = 31.92 s  ClockTime = 34 s

Time = 0.49575

Courant Number mean: 0.0545352 max: 0.136872
smoothSolver:  Solving for Ux, Initial residual = 0.00010016, Final residual = 3.83251e-08, No Iterations 1
smoothSolver:  Solving for Uy, Initial residual = 0.000259718, Final residual = 2.35141e-07, No Iterations 1
DICPCG:  Solving for p, Initial residual = 0.00368074, Final residual = 0.000145517, No Iterations 5
time step continuity errors : sum local = 1.25309e-11, global = 1.03892e-19, cumulative = 4.95499e-18
DICPCG:  Solving for p, Initial residual = 0.00025379, Final residual = 9.65063e-07, No Iterations 121
time step continuity errors : sum local = 8.29064e-14, global = -9.84945e-20, cumulative = 4.85649e-18
ExecutionTime = 31.94 s  ClockTime = 34 s

Time = 0.496

Courant Number mean: 0.0545352 max: 0.136872
smoothSolver:  Solving for Ux, Initial residual = 0.000100093, Final residual = 3.82952e-08, No Iterations 1
smoothSolver:  Solving for Uy, Initial residual = 0.000259893, Final residual = 2.35157e-07, No Iterations 1
DICPCG:  Solving for p, Initial residual = 0.0036786, Final residual = 0.000142682, No Iterations 5
time step continuity errors : sum local = 1.2293e-11, global = -7.80736e-20, cumulative = 4.77842e-18
DICPCG:  Solving for p, Initial residual = 0.000252697, Final residual = 9.7756e-07, No Iterations 121
time step continuity errors : sum local = 8.39649e-14, global = 7.15947e-20, cumulative = 4.85001e-18
ExecutionTime = 31.95 s  ClockTime = 34 s

Time = 0.49625

Courant Number mean: 0.0545352 max: 0.136872
smoothSolver:  Solving for Ux, Initial residual = 0.000100026, Final residual = 3.82642e-08, No Iterations 1
smoothSolver:  Solving for Uy, Initial residual = 0.00026005, Final residual = 2.35166e-07, No Iterations 1
DICPCG:  Solving for p, Initial residual = 0.00350056, Final residual = 0.000136703, No Iterations 6
time step continuity errors : sum local = 1.18369e-11, global = -6.07798e-20, cumulative = 4.78923e-18
DICPCG:  Solving for p, Initial residual = 0.000248455, Final residual = 7.77944e-07, No Iterations 120
time step continuity errors : sum local = 6.67439e-14, global = 8.91891e-20, cumulative = 4.87842e-18
ExecutionTime = 31.97 s  ClockTime = 34 s

Time = 0.4965

Courant Number mean: 0.0545352 max: 0.136872
smoothSolver:  Solving for Ux, Initial residual = 9.99563e-05, Final residual = 3.82319e-08, No Iterations 1
smoothSolver:  Solving for Uy, Initial residual = 0.000259977, Final residual = 2.35027e-07, No Iterations 1
DICPCG:  Solving for p, Initial residual = 0.00356648, Final residual = 0.000175336, No Iterations 5
time step continuity errors : sum local = 1.51151e-11, global = -3.68872e-20, cumulative = 4.84154e-18
DICPCG:  Solving for p, Initial residual = 0.000268644, Final residual = 9.96966e-07, No Iterations 120
time step continuity errors : sum local = 8.55042e-14, global = -4.49894e-20, cumulative = 4.79655e-18
ExecutionTime = 31.98 s  ClockTime = 34 s

Time = 0.49675

Courant Number mean: 0.0545352 max: 0.136872
smoothSolver:  Solving for Ux, Initial residual = 9.9887e-05, Final residual = 3.82004e-08, No Iterations 1
smoothSolver:  Solving for Uy, Initial residual = 0.000259893, Final residual = 2.34875e-07, No Iterations 1
DICPCG:  Solving for p, Initial residual = 0.00349517, Final residual = 0.000161051, No Iterations 5
time step continuity errors : sum local = 1.39036e-11, global = -1.07134e-20, cumulative = 4.78583e-18
DICPCG:  Solving for p, Initial residual = 0.000257484, Final residual = 9.84708e-07, No Iterations 120
time step continuity errors : sum local = 8.46835e-14, global = -1.26884e-19, cumulative = 4.65895e-18
ExecutionTime = 31.98 s  ClockTime = 34 s

Time = 0.497

Courant Number mean: 0.0545352 max: 0.136872
smoothSolver:  Solving for Ux, Initial residual = 9.98193e-05, Final residual = 3.81702e-08, No Iterations 1
smoothSolver:  Solving for Uy, Initial residual = 0.000259919, Final residual = 2.34789e-07, No Iterations 1
DICPCG:  Solving for p, Initial residual = 0.00359264, Final residual = 0.000147172, No Iterations 5
time step continuity errors : sum local = 1.27221e-11, global = 1.61492e-20, cumulative = 4.6751e-18
DICPCG:  Solving for p, Initial residual = 0.000247136, Final residual = 8.92381e-07, No Iterations 121
time step continuity errors : sum local = 7.68671e-14, global = -2.32961e-20, cumulative = 4.6518e-18
ExecutionTime = 32 s  ClockTime = 34 s

Time = 0.49725

Courant Number mean: 0.0545352 max: 0.136872
smoothSolver:  Solving for Ux, Initial residual = 9.97517e-05, Final residual = 3.81396e-08, No Iterations 1
smoothSolver:  Solving for Uy, Initial residual = 0.000259977, Final residual = 2.34728e-07, No Iterations 1
DICPCG:  Solving for p, Initial residual = 0.00375053, Final residual = 0.000186517, No Iterations 4
time step continuity errors : sum local = 1.60831e-11, global = 7.23883e-20, cumulative = 4.72419e-18
DICPCG:  Solving for p, Initial residual = 0.000286698, Final residual = 8.77493e-07, No Iterations 122
time step continuity errors : sum local = 7.56809e-14, global = 1.44694e-19, cumulative = 4.86889e-18
ExecutionTime = 32.01 s  ClockTime = 34 s

Time = 0.4975

Courant Number mean: 0.0545352 max: 0.136872
smoothSolver:  Solving for Ux, Initial residual = 9.96842e-05, Final residual = 3.81095e-08, No Iterations 1
smoothSolver:  Solving for Uy, Initial residual = 0.000260064, Final residual = 2.34694e-07, No Iterations 1
DICPCG:  Solving for p, Initial residual = 0.00371654, Final residual = 0.00014601, No Iterations 5
time step continuity errors : sum local = 1.26363e-11, global = -2.95889e-20, cumulative = 4.8393e-18
DICPCG:  Solving for p, Initial residual = 0.000258574, Final residual = 9.40618e-07, No Iterations 121
time step continuity errors : sum local = 8.09744e-14, global = 4.88968e-20, cumulative = 4.88819e-18
ExecutionTime = 32.03 s  ClockTime = 34 s

Time = 0.49775

Courant Number mean: 0.0545352 max: 0.136872
smoothSolver:  Solving for Ux, Initial residual = 9.96157e-05, Final residual = 3.80796e-08, No Iterations 1
smoothSolver:  Solving for Uy, Initial residual = 0.000259772, Final residual = 2.34424e-07, No Iterations 1
DICPCG:  Solving for p, Initial residual = 0.00382183, Final residual = 0.000183493, No Iterations 4
time step continuity errors : sum local = 1.5839e-11, global = 6.16215e-21, cumulative = 4.89436e-18
DICPCG:  Solving for p, Initial residual = 0.000294854, Final residual = 8.75555e-07, No Iterations 122
time step continuity errors : sum local = 7.54011e-14, global = -7.0694e-20, cumulative = 4.82366e-18
ExecutionTime = 32.04 s  ClockTime = 34 s

Time = 0.498

Courant Number mean: 0.0545352 max: 0.136872
smoothSolver:  Solving for Ux, Initial residual = 9.95476e-05, Final residual = 3.80512e-08, No Iterations 1
smoothSolver:  Solving for Uy, Initial residual = 0.000259463, Final residual = 2.34126e-07, No Iterations 1
DICPCG:  Solving for p, Initial residual = 0.00352563, Final residual = 0.000153727, No Iterations 5
time step continuity errors : sum local = 1.33323e-11, global = 8.84228e-20, cumulative = 4.91208e-18
DICPCG:  Solving for p, Initial residual = 0.000247065, Final residual = 8.60475e-07, No Iterations 121
time step continuity errors : sum local = 7.43366e-14, global = 1.05635e-19, cumulative = 5.01772e-18
ExecutionTime = 32.06 s  ClockTime = 34 s

Time = 0.49825

Courant Number mean: 0.0545352 max: 0.136872
smoothSolver:  Solving for Ux, Initial residual = 9.94812e-05, Final residual = 3.80237e-08, No Iterations 1
smoothSolver:  Solving for Uy, Initial residual = 0.000259436, Final residual = 2.34007e-07, No Iterations 1
DICPCG:  Solving for p, Initial residual = 0.00388667, Final residual = 0.000176195, No Iterations 4
time step continuity errors : sum local = 1.52259e-11, global = 4.60645e-20, cumulative = 5.06378e-18
DICPCG:  Solving for p, Initial residual = 0.000286839, Final residual = 8.88063e-07, No Iterations 122
time step continuity errors : sum local = 7.67846e-14, global = -8.96843e-20, cumulative = 4.9741e-18
ExecutionTime = 32.06 s  ClockTime = 34 s

Time = 0.4985

Courant Number mean: 0.0545352 max: 0.136872
smoothSolver:  Solving for Ux, Initial residual = 9.94159e-05, Final residual = 3.79963e-08, No Iterations 1
smoothSolver:  Solving for Uy, Initial residual = 0.000259753, Final residual = 2.34098e-07, No Iterations 1
DICPCG:  Solving for p, Initial residual = 0.0040363, Final residual = 0.000170882, No Iterations 4
time step continuity errors : sum local = 1.4763e-11, global = -2.77629e-20, cumulative = 4.94634e-18
DICPCG:  Solving for p, Initial residual = 0.000285591, Final residual = 9.37398e-07, No Iterations 122
time step continuity errors : sum local = 8.10292e-14, global = 3.5798e-20, cumulative = 4.98213e-18
ExecutionTime = 32.08 s  ClockTime = 34 s

Time = 0.49875

Courant Number mean: 0.0545352 max: 0.136872
smoothSolver:  Solving for Ux, Initial residual = 9.935e-05, Final residual = 3.79684e-08, No Iterations 1
smoothSolver:  Solving for Uy, Initial residual = 0.000260073, Final residual = 2.34187e-07, No Iterations 1
DICPCG:  Solving for p, Initial residual = 0.00356357, Final residual = 0.000160706, No Iterations 5
time step continuity errors : sum local = 1.39438e-11, global = 1.95884e-19, cumulative = 5.17802e-18
DICPCG:  Solving for p, Initial residual = 0.000255973, Final residual = 8.77259e-07, No Iterations 121
time step continuity errors : sum local = 7.58608e-14, global = 7.81236e-20, cumulative = 5.25614e-18
ExecutionTime = 32.1 s  ClockTime = 34 s

Time = 0.499

Courant Number mean: 0.0545351 max: 0.136872
smoothSolver:  Solving for Ux, Initial residual = 9.92833e-05, Final residual = 3.79394e-08, No Iterations 1
smoothSolver:  Solving for Uy, Initial residual = 0.000260066, Final residual = 2.34086e-07, No Iterations 1
DICPCG:  Solving for p, Initial residual = 0.00364721, Final residual = 0.00015572, No Iterations 5
time step continuity errors : sum local = 1.35187e-11, global = -6.11615e-20, cumulative = 5.19498e-18
DICPCG:  Solving for p, Initial residual = 0.000253954, Final residual = 9.22621e-07, No Iterations 121
time step continuity errors : sum local = 7.99048e-14, global = -1.00357e-19, cumulative = 5.09462e-18
ExecutionTime = 32.11 s  ClockTime = 34 s

Time = 0.49925

Courant Number mean: 0.0545351 max: 0.136872
smoothSolver:  Solving for Ux, Initial residual = 9.92177e-05, Final residual = 3.79102e-08, No Iterations 1
smoothSolver:  Solving for Uy, Initial residual = 0.000260119, Final residual = 2.34019e-07, No Iterations 1
DICPCG:  Solving for p, Initial residual = 0.00353115, Final residual = 0.000163989, No Iterations 5
time step continuity errors : sum local = 1.42473e-11, global = -2.16376e-20, cumulative = 5.07299e-18
DICPCG:  Solving for p, Initial residual = 0.000259422, Final residual = 9.98924e-07, No Iterations 120
time step continuity errors : sum local = 8.64735e-14, global = -1.08668e-20, cumulative = 5.06212e-18
ExecutionTime = 32.13 s  ClockTime = 34 s

Time = 0.4995

Courant Number mean: 0.0545351 max: 0.136872
smoothSolver:  Solving for Ux, Initial residual = 9.91515e-05, Final residual = 3.78808e-08, No Iterations 1
smoothSolver:  Solving for Uy, Initial residual = 0.000260084, Final residual = 2.33889e-07, No Iterations 1
DICPCG:  Solving for p, Initial residual = 0.00371775, Final residual = 0.000166264, No Iterations 5
time step continuity errors : sum local = 1.44396e-11, global = 1.03119e-19, cumulative = 5.16524e-18
DICPCG:  Solving for p, Initial residual = 0.000266586, Final residual = 9.90073e-07, No Iterations 110
time step continuity errors : sum local = 8.91527e-14, global = 7.62183e-20, cumulative = 5.24146e-18
ExecutionTime = 32.14 s  ClockTime = 34 s

Time = 0.49975

Courant Number mean: 0.0545351 max: 0.136872
smoothSolver:  Solving for Ux, Initial residual = 9.90827e-05, Final residual = 3.78501e-08, No Iterations 1
smoothSolver:  Solving for Uy, Initial residual = 0.000259803, Final residual = 2.33607e-07, No Iterations 1
DICPCG:  Solving for p, Initial residual = 0.0039057, Final residual = 0.0001653, No Iterations 5
time step continuity errors : sum local = 1.43577e-11, global = 3.40301e-20, cumulative = 5.27549e-18
DICPCG:  Solving for p, Initial residual = 0.000274689, Final residual = 8.4395e-07, No Iterations 121
time step continuity errors : sum local = 7.2958e-14, global = -7.26023e-20, cumulative = 5.20288e-18
ExecutionTime = 32.14 s  ClockTime = 34 s

Time = 0.5

Courant Number mean: 0.0545351 max: 0.136872
smoothSolver:  Solving for Ux, Initial residual = 9.90145e-05, Final residual = 3.78201e-08, No Iterations 1
smoothSolver:  Solving for Uy, Initial residual = 0.000259454, Final residual = 2.33282e-07, No Iterations 1
DICPCG:  Solving for p, Initial residual = 0.00342764, Final residual = 0.000166138, No Iterations 5
time step continuity errors : sum local = 1.44484e-11, global = -1.14169e-19, cumulative = 5.08872e-18
DICPCG:  Solving for p, Initial residual = 0.000256626, Final residual = 8.43532e-07, No Iterations 121
time step continuity errors : sum local = 7.30983e-14, global = 1.25368e-19, cumulative = 5.21408e-18
ExecutionTime = 32.18 s  ClockTime = 34 s

End

